2XAB_VHD_A_1224
 OpenBabel03301717053D

 41 43  0  0  0  0  0  0  0  0999 V2000
    1.5627   31.0812    0.7228 C   0  0  0  0  0  0  0  0  0  0  0  0
    1.2863   32.4821    1.2723 C   0  0  0  0  0  0  0  0  0  0  0  0
    2.3838   33.4523    0.8166 C   0  0  0  0  0  0  0  0  0  0  0  0
   -0.1159   32.9247    0.8753 C   0  0  0  0  0  0  0  0  0  0  0  0
   -0.3566   33.5180   -0.3754 C   0  0  0  0  0  0  0  0  0  0  0  0
   -1.6454   33.9130   -0.7532 C   0  0  0  0  0  0  0  0  0  0  0  0
   -1.8188   34.5914   -2.0650 C   0  0  0  0  0  0  0  0  0  0  0  0
   -2.3497   33.9850   -2.9862 O   0  0  0  0  0  0  0  0  0  0  0  0
   -1.3135   35.8750   -2.1776 N   0  0  0  0  0  0  0  0  0  0  0  0
   -1.4840   36.6554   -3.4067 C   0  0  0  0  0  0  0  0  0  0  0  0
   -1.2475   38.0658   -2.9530 C   0  0  0  0  0  0  0  0  0  0  0  0
   -1.3775   39.2475   -3.6623 C   0  0  0  0  0  0  0  0  0  0  0  0
   -1.1221   40.4503   -2.9973 C   0  0  0  0  0  0  0  0  0  0  0  0
   -0.7383   40.4565   -1.6456 C   0  0  0  0  0  0  0  0  0  0  0  0
   -0.5998   39.2605   -0.9404 C   0  0  0  0  0  0  0  0  0  0  0  0
   -0.8581   38.0756   -1.6072 C   0  0  0  0  0  0  0  0  0  0  0  0
   -0.7949   36.6822   -1.0773 C   0  0  0  0  0  0  0  0  0  0  0  0
   -2.7227   33.6782    0.0987 C   0  0  0  0  0  0  0  0  0  0  0  0
   -3.9768   34.0808   -0.2620 O   0  0  0  0  0  0  0  0  0  0  0  0
   -2.5135   33.0697    1.3397 C   0  0  0  0  0  0  0  0  0  0  0  0
   -1.2174   32.7046    1.7192 C   0  0  0  0  0  0  0  0  0  0  0  0
   -1.0027   32.1201    2.9387 O   0  0  0  0  0  0  0  0  0  0  0  0
    2.5674   30.7457    1.0006 H   0  0  0  0  0  0  0  0  0  0  0  0
    1.4901   31.0595   -0.3703 H   0  0  0  0  0  0  0  0  0  0  0  0
    0.8451   30.3542    1.1187 H   0  0  0  0  0  0  0  0  0  0  0  0
    1.3548   32.4416    2.3667 H   0  0  0  0  0  0  0  0  0  0  0  0
    2.4482   33.5235   -0.2742 H   0  0  0  0  0  0  0  0  0  0  0  0
    3.3650   33.1187    1.1708 H   0  0  0  0  0  0  0  0  0  0  0  0
    2.2047   34.4583    1.2114 H   0  0  0  0  0  0  0  0  0  0  0  0
    0.4549   33.6798   -1.0804 H   0  0  0  0  0  0  0  0  0  0  0  0
   -2.4902   36.5136   -3.8117 H   0  0  0  0  0  0  0  0  0  0  0  0
   -0.7279   36.3436   -4.1337 H   0  0  0  0  0  0  0  0  0  0  0  0
   -1.6796   39.2477   -4.7055 H   0  0  0  0  0  0  0  0  0  0  0  0
   -1.2308   41.3939   -3.5263 H   0  0  0  0  0  0  0  0  0  0  0  0
   -0.5510   41.4029   -1.1431 H   0  0  0  0  0  0  0  0  0  0  0  0
   -0.3107   39.2643    0.1055 H   0  0  0  0  0  0  0  0  0  0  0  0
    0.2403   36.3861   -0.8824 H   0  0  0  0  0  0  0  0  0  0  0  0
   -1.4166   36.5543   -0.1876 H   0  0  0  0  0  0  0  0  0  0  0  0
   -4.6262   33.7746    0.3909 H   0  0  0  0  0  0  0  0  0  0  0  0
   -3.3494   32.8867    2.0066 H   0  0  0  0  0  0  0  0  0  0  0  0
   -1.8427   32.0460    3.4202 H   0  0  0  0  0  0  0  0  0  0  0  0
  1  2  1  0  0  0  0
  1 23  1  0  0  0  0
  1 24  1  0  0  0  0
  1 25  1  0  0  0  0
  2  3  1  0  0  0  0
  2  4  1  0  0  0  0
  2 26  1  0  0  0  0
  3 27  1  0  0  0  0
  3 28  1  0  0  0  0
  3 29  1  0  0  0  0
  4  5  2  0  0  0  0
  4 21  1  0  0  0  0
  5  6  1  0  0  0  0
  5 30  1  0  0  0  0
  6  7  1  0  0  0  0
  6 18  2  0  0  0  0
  7  8  2  0  0  0  0
  7  9  1  0  0  0  0
  9 10  1  0  0  0  0
  9 17  1  0  0  0  0
 10 11  1  0  0  0  0
 10 31  1  0  0  0  0
 10 32  1  0  0  0  0
 11 12  2  0  0  0  0
 11 16  1  0  0  0  0
 12 13  1  0  0  0  0
 12 33  1  0  0  0  0
 13 14  2  0  0  0  0
 13 34  1  0  0  0  0
 14 15  1  0  0  0  0
 14 35  1  0  0  0  0
 15 16  2  0  0  0  0
 15 36  1  0  0  0  0
 16 17  1  0  0  0  0
 17 37  1  0  0  0  0
 17 38  1  0  0  0  0
 18 19  1  0  0  0  0
 18 20  1  0  0  0  0
 19 39  1  0  0  0  0
 20 21  2  0  0  0  0
 20 40  1  0  0  0  0
 21 22  1  0  0  0  0
 22 41  1  0  0  0  0
M  END
$$$$
