4BQJ_XKL_A_1225
 OpenBabel03301717263D

 43 45  0  0  0  0  0  0  0  0999 V2000
    0.4329    4.3304    9.8958 O   0  0  0  0  0  0  0  0  0  0  0  0
    0.7418    4.4858   11.0759 C   0  0  0  0  0  0  0  0  0  0  0  0
   -0.1935    4.7301   12.0684 N   0  0  0  0  0  0  0  0  0  0  0  0
   -1.6215    4.8908   11.8657 C   0  0  0  0  0  0  0  0  0  0  0  0
   -2.3626    3.5719   11.7203 C   0  0  0  0  0  0  0  0  0  0  0  0
    2.1491    4.3643   11.5262 C   0  0  0  0  0  0  0  0  0  0  0  0
    2.6533    4.8840   12.6673 N   0  0  0  0  0  0  0  0  0  0  0  0
    4.0163    4.5354   12.6688 O   0  0  0  0  0  0  0  0  0  0  0  0
    3.1476    3.6649   10.8153 C   0  0  0  0  0  0  0  0  0  0  0  0
    4.3038    3.7884   11.5633 C   0  0  0  0  0  0  0  0  0  0  0  0
    5.6492    3.2487   11.3722 C   0  0  0  0  0  0  0  0  0  0  0  0
    6.7989    4.0405   11.5175 C   0  0  0  0  0  0  0  0  0  0  0  0
    6.6258    5.3471   11.8897 O   0  0  0  0  0  0  0  0  0  0  0  0
    8.0757    3.5281   11.2493 C   0  0  0  0  0  0  0  0  0  0  0  0
    8.2156    2.2020   10.8295 C   0  0  0  0  0  0  0  0  0  0  0  0
    9.4771    1.7355   10.5750 O   0  0  0  0  0  0  0  0  0  0  0  0
    5.8184    1.9206   10.9252 C   0  0  0  0  0  0  0  0  0  0  0  0
    7.0999    1.3912   10.6757 C   0  0  0  0  0  0  0  0  0  0  0  0
    4.6674    1.1529   10.8133 O   0  0  0  0  0  0  0  0  0  0  0  0
    4.6493    0.1550    9.8744 C   0  0  0  0  0  0  0  0  0  0  0  0
    5.0574    0.3877    8.5593 C   0  0  0  0  0  0  0  0  0  0  0  0
    5.1043   -0.6667    7.6602 C   0  0  0  0  0  0  0  0  0  0  0  0
    4.6973   -1.9391    8.0724 C   0  0  0  0  0  0  0  0  0  0  0  0
    4.8054   -3.0400    7.1151 N   0  0  0  0  0  0  0  0  0  0  0  0
    5.6018   -2.8953    6.1767 O   0  0  0  0  0  0  0  0  0  0  0  0
    4.1069   -4.0464    7.3053 O   0  0  0  0  0  0  0  0  0  0  0  0
    4.2335   -2.1679    9.3752 C   0  0  0  0  0  0  0  0  0  0  0  0
    4.2044   -1.1077   10.2782 C   0  0  0  0  0  0  0  0  0  0  0  0
    0.1715    4.7674   13.0153 H   0  0  0  0  0  0  0  0  0  0  0  0
   -1.8119    5.5138   10.9847 H   0  0  0  0  0  0  0  0  0  0  0  0
   -2.0085    5.4126   12.7477 H   0  0  0  0  0  0  0  0  0  0  0  0
   -2.0158    3.0288   10.8400 H   0  0  0  0  0  0  0  0  0  0  0  0
   -3.4412    3.7489   11.6147 H   0  0  0  0  0  0  0  0  0  0  0  0
   -2.2090    2.9426   12.6029 H   0  0  0  0  0  0  0  0  0  0  0  0
    3.0490    3.1246    9.9009 H   0  0  0  0  0  0  0  0  0  0  0  0
    7.4696    5.8179   11.9590 H   0  0  0  0  0  0  0  0  0  0  0  0
    8.9646    4.1438   11.3574 H   0  0  0  0  0  0  0  0  0  0  0  0
    9.4489    0.8031   10.2942 H   0  0  0  0  0  0  0  0  0  0  0  0
    7.2145    0.3587   10.3605 H   0  0  0  0  0  0  0  0  0  0  0  0
    5.3814    1.3774    8.2492 H   0  0  0  0  0  0  0  0  0  0  0  0
    5.4705   -0.4899    6.6520 H   0  0  0  0  0  0  0  0  0  0  0  0
    3.9202   -3.1601    9.6939 H   0  0  0  0  0  0  0  0  0  0  0  0
    3.8675   -1.2611   11.3037 H   0  0  0  0  0  0  0  0  0  0  0  0
  1  2  2  0  0  0  0
  2  3  1  0  0  0  0
  2  6  1  0  0  0  0
  3  4  1  0  0  0  0
  3 29  1  0  0  0  0
  4  5  1  0  0  0  0
  4 30  1  0  0  0  0
  4 31  1  0  0  0  0
  5 32  1  0  0  0  0
  5 33  1  0  0  0  0
  5 34  1  0  0  0  0
  6  7  2  0  0  0  0
  6  9  1  0  0  0  0
  7  8  1  0  0  0  0
  8 10  1  0  0  0  0
  9 10  2  0  0  0  0
  9 35  1  0  0  0  0
 10 11  1  0  0  0  0
 11 12  2  0  0  0  0
 11 17  1  0  0  0  0
 12 13  1  0  0  0  0
 12 14  1  0  0  0  0
 13 36  1  0  0  0  0
 14 15  2  0  0  0  0
 14 37  1  0  0  0  0
 15 16  1  0  0  0  0
 15 18  1  0  0  0  0
 16 38  1  0  0  0  0
 17 18  2  0  0  0  0
 17 19  1  0  0  0  0
 18 39  1  0  0  0  0
 19 20  1  0  0  0  0
 20 21  2  0  0  0  0
 20 28  1  0  0  0  0
 21 22  1  0  0  0  0
 21 40  1  0  0  0  0
 22 23  2  0  0  0  0
 22 41  1  0  0  0  0
 23 24  1  0  0  0  0
 23 27  1  0  0  0  0
 24 25  2  0  0  0  0
 24 26  2  0  0  0  0
 27 28  2  0  0  0  0
 27 42  1  0  0  0  0
 28 43  1  0  0  0  0
M  END
$$$$
