3K97_4CD_A_901
 OpenBabel03301717183D

 41 43  0  0  1  0  0  0  0  0999 V2000
   67.5224   78.9388   22.8180 N   0  0  0  0  0  0  0  0  0  0  0  0
   68.0148   79.8504   23.8638 C   0  0  1  0  0  0  0  0  0  0  0  0
   69.4651   79.6246   24.3067 C   0  0  0  0  0  0  0  0  0  0  0  0
   70.4070   79.0565   23.4250 C   0  0  0  0  0  0  0  0  0  0  0  0
   71.7335   78.8388   23.8171 C   0  0  0  0  0  0  0  0  0  0  0  0
   72.1659   79.1985   25.0878 C   0  0  0  0  0  0  0  0  0  0  0  0
   69.9202   80.0125   25.5967 C   0  0  0  0  0  0  0  0  0  0  0  0
   68.2936   76.4701   24.7554 C   0  0  0  0  0  0  0  0  0  0  0  0
   67.1930   75.5677   26.7252 C   0  0  0  0  0  0  0  0  0  0  0  0
   65.9014   76.6927   25.0183 C   0  0  0  0  0  0  0  0  0  0  0  0
   67.8472   81.2532   23.2443 C   0  0  0  0  0  0  0  0  0  0  0  0
   67.9430   81.0274   21.7400 C   0  0  0  0  0  0  0  0  0  0  0  0
   67.3850   79.6263   21.5369 C   0  0  0  0  0  0  0  0  0  0  0  0
   71.2588   79.7905   25.9702 C   0  0  0  0  0  0  0  0  0  0  0  0
   69.0391   80.6693   26.6338 C   0  0  0  0  0  0  0  0  0  0  0  0
   67.0679   76.9578   24.2821 C   0  0  0  0  0  0  0  0  0  0  0  0
   68.3566   75.7925   25.9799 C   0  0  0  0  0  0  0  0  0  0  0  0
   65.9609   76.0057   26.2419 C   0  0  0  0  0  0  0  0  0  0  0  0
   64.6859   77.1267   24.5633 O   0  0  0  0  0  0  0  0  0  0  0  0
   67.2690   74.9199   27.9308 O   0  0  0  0  0  0  0  0  0  0  0  0
   66.3925   74.8336   28.3356 H   0  0  0  0  0  0  0  0  0  0  0  0
   67.0146   77.6402   22.9541 C   0  0  0  0  0  0  0  0  0  0  0  0
   66.5511   77.0149   22.0102 O   0  0  0  0  0  0  0  0  0  0  0  0
   69.8953   75.2505   26.5485 Cl  0  0  0  0  0  0  0  0  0  0  0  0
   67.3574   79.7220   24.7275 H   0  0  0  0  0  0  0  0  0  0  0  0
   70.1137   78.7545   22.4199 H   0  0  0  0  0  0  0  0  0  0  0  0
   72.4346   78.3780   23.1216 H   0  0  0  0  0  0  0  0  0  0  0  0
   73.1927   79.0301   25.3933 H   0  0  0  0  0  0  0  0  0  0  0  0
   69.2000   76.6093   24.1747 H   0  0  0  0  0  0  0  0  0  0  0  0
   68.5886   81.9844   23.5849 H   0  0  0  0  0  0  0  0  0  0  0  0
   66.8544   81.6595   23.4766 H   0  0  0  0  0  0  0  0  0  0  0  0
   68.9875   81.0759   21.4136 H   0  0  0  0  0  0  0  0  0  0  0  0
   67.3880   81.7796   21.1674 H   0  0  0  0  0  0  0  0  0  0  0  0
   66.3299   79.6622   21.2380 H   0  0  0  0  0  0  0  0  0  0  0  0
   67.9423   79.0837   20.7674 H   0  0  0  0  0  0  0  0  0  0  0  0
   71.6128   80.0788   26.9619 H   0  0  0  0  0  0  0  0  0  0  0  0
   68.0178   80.8386   26.2893 H   0  0  0  0  0  0  0  0  0  0  0  0
   69.4427   81.6485   26.9114 H   0  0  0  0  0  0  0  0  0  0  0  0
   68.9833   80.0418   27.5293 H   0  0  0  0  0  0  0  0  0  0  0  0
   65.0558   75.8234   26.8128 H   0  0  0  0  0  0  0  0  0  0  0  0
   63.9790   76.8394   25.1654 H   0  0  0  0  0  0  0  0  0  0  0  0
  1  2  1  0  0  0  0
  1 13  1  0  0  0  0
  1 22  1  0  0  0  0
  2  3  1  0  0  0  0
  2 11  1  0  0  0  0
  2 25  1  1  0  0  0
  3  4  2  0  0  0  0
  3  7  1  0  0  0  0
  4  5  1  0  0  0  0
  4 26  1  0  0  0  0
  5  6  2  0  0  0  0
  5 27  1  0  0  0  0
  6 14  1  0  0  0  0
  6 28  1  0  0  0  0
  7 14  2  0  0  0  0
  7 15  1  0  0  0  0
  8 16  2  0  0  0  0
  8 17  1  0  0  0  0
  8 29  1  0  0  0  0
  9 17  2  0  0  0  0
  9 18  1  0  0  0  0
  9 20  1  0  0  0  0
 10 16  1  0  0  0  0
 10 18  2  0  0  0  0
 10 19  1  0  0  0  0
 11 12  1  0  0  0  0
 11 30  1  0  0  0  0
 11 31  1  0  0  0  0
 12 13  1  0  0  0  0
 12 32  1  0  0  0  0
 12 33  1  0  0  0  0
 13 34  1  0  0  0  0
 13 35  1  0  0  0  0
 14 36  1  0  0  0  0
 15 37  1  0  0  0  0
 15 38  1  0  0  0  0
 15 39  1  0  0  0  0
 16 22  1  0  0  0  0
 17 24  1  0  0  0  0
 18 40  1  0  0  0  0
 19 41  1  0  0  0  0
 20 21  1  0  0  0  0
 22 23  2  0  0  0  0
M  END
$$$$
