0PJ
 OpenBabel04161911543D

 64 64  0  0  1  0  0  0  0  0999 V2000
   49.6232   17.9587   -9.0403 C   0  0  0  0  0  0  0  0  0  0  0  0
   49.4553   16.7575   -9.1353 O   0  0  0  0  0  0  0  0  0  0  0  0
   49.3783   18.8641  -10.0191 O   0  0  0  0  0  0  0  0  0  0  0  0
   48.8457   18.3150  -11.2349 C   0  0  0  0  0  0  0  0  0  0  0  0
   47.5600   19.0303  -11.5438 C   0  0  0  0  0  0  0  0  0  0  0  0
   46.4785   18.9363  -10.6538 C   0  0  0  0  0  0  0  0  0  0  0  0
   47.4044   19.7750  -12.7191 C   0  0  0  0  0  0  0  0  0  0  0  0
   45.2669   19.5675  -10.9352 C   0  0  0  0  0  0  0  0  0  0  0  0
   46.1917   20.4131  -12.9962 C   0  0  0  0  0  0  0  0  0  0  0  0
   45.1227   20.3064  -12.1070 C   0  0  0  0  0  0  0  0  0  0  0  0
   50.0253   18.6208   -7.9361 N   0  0  0  0  0  0  0  0  0  0  0  0
   50.4862   17.9610   -6.7350 C   0  0  0  0  0  0  0  0  0  0  0  0
   51.8052   19.0343   -6.0261 P   0  0  1  0  0  0  0  0  0  0  0  0
   53.1603   18.6261   -6.5205 O   0  0  0  0  0  0  0  0  0  0  0  0
   51.3286   20.4663   -6.1447 O   0  0  0  0  0  0  0  0  0  0  0  0
   51.6670   18.6401   -4.3650 N   0  0  0  0  0  0  0  0  0  0  0  0
   52.8893   18.2788   -3.6459 C   0  0  2  0  0  0  0  0  0  0  0  0
   53.5648   16.9380   -3.9499 C   0  0  0  0  0  0  0  0  0  0  0  0
   54.7857   16.7862   -3.8203 O   0  0  0  0  0  0  0  0  0  0  0  0
   52.5087   18.3434   -2.1563 C   0  0  0  0  0  0  0  0  0  0  0  0
   53.7051   18.1974   -1.2083 C   0  0  0  0  0  0  0  0  0  0  0  0
   54.6624   19.3750   -1.3808 C   0  0  0  0  0  0  0  0  0  0  0  0
   53.2204   18.1028    0.2351 C   0  0  0  0  0  0  0  0  0  0  0  0
   52.7116   15.8699   -4.1174 N   0  0  0  0  0  0  0  0  0  0  0  0
   53.2141   14.5281   -4.4600 C   0  0  2  0  0  0  0  0  0  0  0  0
   52.3359   13.7749   -5.5119 C   0  0  0  0  0  0  0  0  0  0  0  0
   51.2268   14.3337   -5.7753 O   0  0  0  0  0  0  0  0  0  0  0  0
   53.4727   13.6830   -3.1960 C   0  0  0  0  0  0  0  0  0  0  0  0
   52.2574   13.4870   -2.2579 C   0  0  0  0  0  0  0  0  0  0  0  0
   52.3366   12.1303   -1.5534 C   0  0  0  0  0  0  0  0  0  0  0  0
   52.2221   14.5579   -1.1666 C   0  0  0  0  0  0  0  0  0  0  0  0
   52.8119   12.6869   -5.9532 O   0  0  0  0  0  0  0  0  0  0  0  0
   48.6555   17.2386  -11.1856 H   0  0  0  0  0  0  0  0  0  0  0  0
   49.5997   18.4807  -12.0081 H   0  0  0  0  0  0  0  0  0  0  0  0
   46.5880   18.3704   -9.7293 H   0  0  0  0  0  0  0  0  0  0  0  0
   48.2281   19.8667  -13.4227 H   0  0  0  0  0  0  0  0  0  0  0  0
   44.4420   19.4818  -10.2339 H   0  0  0  0  0  0  0  0  0  0  0  0
   46.0822   20.9964  -13.9057 H   0  0  0  0  0  0  0  0  0  0  0  0
   44.1805   20.8013  -12.3229 H   0  0  0  0  0  0  0  0  0  0  0  0
   50.2137   19.6209   -7.9735 H   0  0  0  0  0  0  0  0  0  0  0  0
   50.8302   16.9433   -6.9124 H   0  0  0  0  0  0  0  0  0  0  0  0
   49.6380   17.9499   -6.0379 H   0  0  0  0  0  0  0  0  0  0  0  0
   50.7765   18.2914   -4.0307 H   0  0  0  0  0  0  0  0  0  0  0  0
   53.6187   19.0554   -3.8941 H   0  0  0  0  0  0  0  0  0  0  0  0
   51.7552   17.5763   -1.9375 H   0  0  0  0  0  0  0  0  0  0  0  0
   52.0033   19.2981   -1.9529 H   0  0  0  0  0  0  0  0  0  0  0  0
   54.2429   17.2676   -1.4240 H   0  0  0  0  0  0  0  0  0  0  0  0
   55.5335   19.2694   -0.7301 H   0  0  0  0  0  0  0  0  0  0  0  0
   54.1600   20.3191   -1.1446 H   0  0  0  0  0  0  0  0  0  0  0  0
   55.0381   19.4463   -2.4058 H   0  0  0  0  0  0  0  0  0  0  0  0
   52.5633   17.2364    0.3678 H   0  0  0  0  0  0  0  0  0  0  0  0
   52.6627   18.9984    0.5247 H   0  0  0  0  0  0  0  0  0  0  0  0
   54.0681   17.9853    0.9170 H   0  0  0  0  0  0  0  0  0  0  0  0
   51.7724   16.0573   -4.4558 H   0  0  0  0  0  0  0  0  0  0  0  0
   54.1860   14.6657   -4.9537 H   0  0  0  0  0  0  0  0  0  0  0  0
   54.2832   14.1548   -2.6250 H   0  0  0  0  0  0  0  0  0  0  0  0
   53.8556   12.7032   -3.5066 H   0  0  0  0  0  0  0  0  0  0  0  0
   51.3249   13.5230   -2.8329 H   0  0  0  0  0  0  0  0  0  0  0  0
   51.4629   11.9804   -0.9091 H   0  0  0  0  0  0  0  0  0  0  0  0
   53.2312   12.0708   -0.9235 H   0  0  0  0  0  0  0  0  0  0  0  0
   52.3681   11.3096   -2.2751 H   0  0  0  0  0  0  0  0  0  0  0  0
   52.1449   15.5523   -1.5942 H   0  0  0  0  0  0  0  0  0  0  0  0
   53.1308   14.5266   -0.5547 H   0  0  0  0  0  0  0  0  0  0  0  0
   51.3650   14.4175   -0.4996 H   0  0  0  0  0  0  0  0  0  0  0  0
  1  2  2  0  0  0  0
  1  3  1  0  0  0  0
  1 11  1  0  0  0  0
  3  4  1  0  0  0  0
  4  5  1  0  0  0  0
  4 33  1  0  0  0  0
  4 34  1  0  0  0  0
  5  6  2  0  0  0  0
  5  7  1  0  0  0  0
  6  8  1  0  0  0  0
  6 35  1  0  0  0  0
  7  9  2  0  0  0  0
  7 36  1  0  0  0  0
  8 10  2  0  0  0  0
  8 37  1  0  0  0  0
  9 10  1  0  0  0  0
  9 38  1  0  0  0  0
 10 39  1  0  0  0  0
 11 12  1  0  0  0  0
 11 40  1  0  0  0  0
 12 41  1  0  0  0  0
 12 42  1  0  0  0  0
 13 12  1  6  0  0  0
 13 14  2  0  0  0  0
 13 15  1  0  0  0  0
 13 16  1  0  0  0  0
 16 17  1  0  0  0  0
 16 43  1  0  0  0  0
 17 20  1  0  0  0  0
 17 18  1  0  0  0  0
 17 44  1  6  0  0  0
 18 19  2  0  0  0  0
 18 24  1  0  0  0  0
 20 21  1  0  0  0  0
 20 45  1  0  0  0  0
 20 46  1  0  0  0  0
 21 22  1  0  0  0  0
 21 23  1  0  0  0  0
 21 47  1  0  0  0  0
 22 48  1  0  0  0  0
 22 49  1  0  0  0  0
 22 50  1  0  0  0  0
 23 51  1  0  0  0  0
 23 52  1  0  0  0  0
 23 53  1  0  0  0  0
 24 25  1  0  0  0  0
 24 54  1  0  0  0  0
 25 28  1  0  0  0  0
 25 26  1  0  0  0  0
 25 55  1  6  0  0  0
 26 27  2  0  0  0  0
 26 32  1  0  0  0  0
 28 29  1  0  0  0  0
 28 56  1  0  0  0  0
 28 57  1  0  0  0  0
 29 30  1  0  0  0  0
 29 31  1  0  0  0  0
 29 58  1  0  0  0  0
 30 59  1  0  0  0  0
 30 60  1  0  0  0  0
 30 61  1  0  0  0  0
 31 62  1  0  0  0  0
 31 63  1  0  0  0  0
 31 64  1  0  0  0  0
M  END
$$$$
