1N1
 OpenBabel04161910373D

 60 63  0  0  0  0  0  0  0  0999 V2000
  -70.6823  -13.9763   44.5540 C   0  0  0  0  0  0  0  0  0  0  0  0
  -70.2099  -14.4617   45.7667 C   0  0  0  0  0  0  0  0  0  0  0  0
  -70.8710  -15.0811   46.8662 C   0  0  0  0  0  0  0  0  0  0  0  0
  -60.3591  -11.0733   42.1391 N   0  3  0  0  0  0  0  0  0  0  0  0
  -74.3848  -17.2622   49.6685 C   0  0  0  0  0  0  0  0  0  0  0  0
  -74.2841  -15.8777   49.6282 C   0  0  0  0  0  0  0  0  0  0  0  0
  -73.5628  -15.2625   48.6055 C   0  0  0  0  0  0  0  0  0  0  0  0
  -73.4666  -13.7653   48.5969 C   0  0  0  0  0  0  0  0  0  0  0  0
  -66.1527  -12.9733   44.1017 C   0  0  0  0  0  0  0  0  0  0  0  0
  -65.0953  -12.6853   43.2753 C   0  0  0  0  0  0  0  0  0  0  0  0
  -63.8288  -12.6834   43.8332 C   0  0  0  0  0  0  0  0  0  0  0  0
  -64.7080  -13.2497   45.8595 C   0  0  0  0  0  0  0  0  0  0  0  0
  -64.5227  -13.5781   47.2968 C   0  0  0  0  0  0  0  0  0  0  0  0
  -62.7405  -11.7932   41.7928 C   0  0  0  0  0  0  0  0  0  0  0  0
  -61.4067  -12.6725   43.7617 C   0  0  0  0  0  0  0  0  0  0  0  0
  -59.3887   -9.9374   41.9807 C   0  0  0  0  0  0  0  0  0  0  0  0
  -57.9815  -10.3645   42.3912 C   0  0  0  0  0  0  0  0  0  0  0  0
  -67.4480  -13.0579   43.5870 N   0  0  0  0  0  0  0  0  0  0  0  0
  -68.5461  -13.4931   44.2518 C   0  0  0  0  0  0  0  0  0  0  0  0
  -69.7413  -13.4305   43.7028 N   0  0  0  0  0  0  0  0  0  0  0  0
  -68.5397  -14.2011   45.8274 S   0  0  0  0  0  0  0  0  0  0  0  0
  -72.2045  -15.3905   46.6308 N   0  0  0  0  0  0  0  0  0  0  0  0
  -72.9515  -16.0387   47.6258 C   0  0  0  0  0  0  0  0  0  0  0  0
  -73.0504  -17.4342   47.6581 C   0  0  0  0  0  0  0  0  0  0  0  0
  -73.7635  -18.0368   48.6871 C   0  0  0  0  0  0  0  0  0  0  0  0
  -72.2843  -18.4296   46.4713 Cl  0  0  0  0  0  0  0  0  0  0  0  0
  -70.3321  -15.3127   47.9341 O   0  0  0  0  0  0  0  0  0  0  0  0
  -63.6423  -12.9693   45.1244 N   0  0  0  0  0  0  0  0  0  0  0  0
  -65.9429  -13.2411   45.3896 N   0  0  0  0  0  0  0  0  0  0  0  0
  -62.6958  -12.3630   43.1291 N   0  0  0  0  0  0  0  0  0  0  0  0
  -61.7330  -10.6515   41.6599 C   0  0  0  0  0  0  0  0  0  0  0  0
  -60.4264  -11.5207   43.5950 C   0  0  0  0  0  0  0  0  0  0  0  0
  -57.7266   -9.9145   43.7172 O   0  0  0  0  0  0  0  0  0  0  0  0
  -71.7180  -13.9970   44.2461 H   0  0  0  0  0  0  0  0  0  0  0  0
  -74.9427  -17.7348   50.4686 H   0  0  0  0  0  0  0  0  0  0  0  0
  -74.7662  -15.2769   50.4018 H   0  0  0  0  0  0  0  0  0  0  0  0
  -74.0254  -13.3382   49.4356 H   0  0  0  0  0  0  0  0  0  0  0  0
  -73.8950  -13.3833   47.6667 H   0  0  0  0  0  0  0  0  0  0  0  0
  -72.4223  -13.4580   48.6933 H   0  0  0  0  0  0  0  0  0  0  0  0
  -65.2713  -12.4857   42.2312 H   0  0  0  0  0  0  0  0  0  0  0  0
  -63.4641  -13.5259   47.5611 H   0  0  0  0  0  0  0  0  0  0  0  0
  -64.8932  -14.5884   47.4894 H   0  0  0  0  0  0  0  0  0  0  0  0
  -65.0812  -12.8609   47.9038 H   0  0  0  0  0  0  0  0  0  0  0  0
  -63.7133  -11.3461   41.5676 H   0  0  0  0  0  0  0  0  0  0  0  0
  -62.5471  -12.5729   41.0496 H   0  0  0  0  0  0  0  0  0  0  0  0
  -60.9937  -13.5899   43.3280 H   0  0  0  0  0  0  0  0  0  0  0  0
  -61.4657  -12.8338   44.8444 H   0  0  0  0  0  0  0  0  0  0  0  0
  -59.7640   -9.1243   42.6146 H   0  0  0  0  0  0  0  0  0  0  0  0
  -59.4195   -9.6433   40.9301 H   0  0  0  0  0  0  0  0  0  0  0  0
  -57.2394   -9.9449   41.7110 H   0  0  0  0  0  0  0  0  0  0  0  0
  -57.8682  -11.4552   42.3849 H   0  0  0  0  0  0  0  0  0  0  0  0
  -67.6111  -12.6398   42.6835 H   0  0  0  0  0  0  0  0  0  0  0  0
  -72.6319  -15.2952   45.7166 H   0  0  0  0  0  0  0  0  0  0  0  0
  -73.8388  -19.1169   48.7363 H   0  0  0  0  0  0  0  0  0  0  0  0
  -61.6433  -10.3411   40.6151 H   0  0  0  0  0  0  0  0  0  0  0  0
  -62.0336   -9.7980   42.2790 H   0  0  0  0  0  0  0  0  0  0  0  0
  -60.7344  -10.6465   44.1780 H   0  0  0  0  0  0  0  0  0  0  0  0
  -59.4321  -11.8497   43.9022 H   0  0  0  0  0  0  0  0  0  0  0  0
  -57.7179   -8.9375   43.7226 H   0  0  0  0  0  0  0  0  0  0  0  0
  -60.0572  -11.8802   41.5747 H   0  0  0  0  0  0  0  0  0  0  0  0
  1  2  2  0  0  0  0
  1 20  1  0  0  0  0
  1 34  1  0  0  0  0
  2  3  1  0  0  0  0
  2 21  1  0  0  0  0
  3 22  1  0  0  0  0
  3 27  2  0  0  0  0
  4 16  1  0  0  0  0
  4 31  1  0  0  0  0
  4 32  1  0  0  0  0
  4 60  1  0  0  0  0
  5  6  2  0  0  0  0
  5 25  1  0  0  0  0
  5 35  1  0  0  0  0
  6  7  1  0  0  0  0
  6 36  1  0  0  0  0
  7  8  1  0  0  0  0
  7 23  2  0  0  0  0
  8 37  1  0  0  0  0
  8 38  1  0  0  0  0
  8 39  1  0  0  0  0
  9 10  2  0  0  0  0
  9 18  1  0  0  0  0
  9 29  1  0  0  0  0
 10 11  1  0  0  0  0
 10 40  1  0  0  0  0
 11 28  2  0  0  0  0
 11 30  1  0  0  0  0
 12 13  1  0  0  0  0
 12 28  1  0  0  0  0
 12 29  2  0  0  0  0
 13 41  1  0  0  0  0
 13 42  1  0  0  0  0
 13 43  1  0  0  0  0
 14 30  1  0  0  0  0
 14 31  1  0  0  0  0
 14 44  1  0  0  0  0
 14 45  1  0  0  0  0
 15 30  1  0  0  0  0
 15 32  1  0  0  0  0
 15 46  1  0  0  0  0
 15 47  1  0  0  0  0
 16 17  1  0  0  0  0
 16 48  1  0  0  0  0
 16 49  1  0  0  0  0
 17 33  1  0  0  0  0
 17 50  1  0  0  0  0
 17 51  1  0  0  0  0
 18 19  1  0  0  0  0
 18 52  1  0  0  0  0
 19 20  2  0  0  0  0
 19 21  1  0  0  0  0
 22 23  1  0  0  0  0
 22 53  1  0  0  0  0
 23 24  1  0  0  0  0
 24 25  2  0  0  0  0
 24 26  1  0  0  0  0
 25 54  1  0  0  0  0
 31 55  1  0  0  0  0
 31 56  1  0  0  0  0
 32 57  1  0  0  0  0
 32 58  1  0  0  0  0
 33 59  1  0  0  0  0
M  CHG  1   4   1
M  END
$$$$
