1TA
 OpenBabel04161912023D

 62 66  0  0  1  0  0  0  0  0999 V2000
   21.7740   36.5793   19.8144 C   0  0  0  0  0  0  0  0  0  0  0  0
   21.7383   37.7235   20.7325 C   0  0  0  0  0  0  0  0  0  0  0  0
   22.2757   38.9000   20.3620 C   0  0  0  0  0  0  0  0  0  0  0  0
   22.9062   39.2616   19.0128 C   0  0  1  0  0  0  0  0  0  0  0  0
   24.3732   39.6348   19.3047 C   0  0  0  0  0  0  0  0  0  0  0  0
   22.9542   38.0257   18.1043 C   0  0  0  0  0  0  0  0  0  0  0  0
   23.5327   38.3539   16.7205 C   0  0  0  0  0  0  0  0  0  0  0  0
   22.9478   39.6181   15.9979 C   0  0  0  0  0  0  0  0  0  0  0  0
   22.8065   40.8993   16.8539 C   0  0  2  0  0  0  0  0  0  0  0  0
   22.1479   40.4781   18.2364 C   0  0  2  0  0  0  0  0  0  0  0  0
   21.9273   41.7569   19.0929 C   0  0  2  0  0  0  0  0  0  0  0  0
   21.1986   42.9399   18.3602 C   0  0  0  0  0  0  0  0  0  0  0  0
   21.7938   43.3614   16.9981 C   0  0  1  0  0  0  0  0  0  0  0  0
   23.1762   44.0063   17.2604 C   0  0  0  0  0  0  0  0  0  0  0  0
   21.9586   42.0733   16.1313 C   0  0  1  0  0  0  0  0  0  0  0  0
   22.3596   42.7240   14.7760 C   0  0  0  0  0  0  0  0  0  0  0  0
   21.4197   43.9734   14.6239 C   0  0  2  0  0  0  0  0  0  0  0  0
   20.9572   44.3730   16.0406 C   0  0  2  0  0  0  0  0  0  0  0  0
   19.1040   43.9709   14.6615 C   0  0  0  0  0  0  0  0  0  0  0  0
   18.3299   45.1802   14.0921 C   0  0  0  0  0  0  0  0  0  0  0  0
   18.1478   42.7758   14.5920 C   0  0  0  0  0  0  0  0  0  0  0  0
   21.2881   45.8938   16.2750 C   0  0  0  0  0  0  0  0  0  0  0  0
   20.5574   46.6246   17.4184 C   0  0  0  0  0  0  0  0  0  0  0  0
   22.5061   36.8011   18.5015 C   0  0  0  0  0  0  0  0  0  0  0  0
   20.8888   39.9924   17.9448 F   0  0  0  0  0  0  0  0  0  0  0  0
   21.1923   35.5147   20.0628 O   0  0  0  0  0  0  0  0  0  0  0  0
   23.1797   42.2100   19.5914 O   0  0  0  0  0  0  0  0  0  0  0  0
   19.5265   44.2001   16.0239 O   0  0  0  0  0  0  0  0  0  0  0  0
   20.2443   43.6629   13.8615 O   0  0  0  0  0  0  0  0  0  0  0  0
   21.3208   47.7753   17.8877 O   0  0  0  0  0  0  0  0  0  0  0  0
   22.1473   46.5181   15.6394 O   0  0  0  0  0  0  0  0  0  0  0  0
   21.2917   37.5801   21.7144 H   0  0  0  0  0  0  0  0  0  0  0  0
   22.3142   39.6695   21.1364 H   0  0  0  0  0  0  0  0  0  0  0  0
   24.9219   38.8403   19.8240 H   0  0  0  0  0  0  0  0  0  0  0  0
   24.4319   40.5102   19.9438 H   0  0  0  0  0  0  0  0  0  0  0  0
   24.9176   39.8701   18.3857 H   0  0  0  0  0  0  0  0  0  0  0  0
   23.3856   37.4960   16.0573 H   0  0  0  0  0  0  0  0  0  0  0  0
   24.6211   38.5003   16.7986 H   0  0  0  0  0  0  0  0  0  0  0  0
   21.9630   39.3592   15.5976 H   0  0  0  0  0  0  0  0  0  0  0  0
   23.5895   39.8508   15.1352 H   0  0  0  0  0  0  0  0  0  0  0  0
   23.8171   41.2896   17.0370 H   0  0  0  0  0  0  0  0  0  0  0  0
   21.3285   41.4898   19.9701 H   0  0  0  0  0  0  0  0  0  0  0  0
   21.2326   43.8163   19.0210 H   0  0  0  0  0  0  0  0  0  0  0  0
   20.1533   42.6598   18.2192 H   0  0  0  0  0  0  0  0  0  0  0  0
   23.8207   43.3781   17.8654 H   0  0  0  0  0  0  0  0  0  0  0  0
   23.0685   44.9600   17.7807 H   0  0  0  0  0  0  0  0  0  0  0  0
   23.7306   44.2023   16.3436 H   0  0  0  0  0  0  0  0  0  0  0  0
   20.9687   41.6358   15.9566 H   0  0  0  0  0  0  0  0  0  0  0  0
   22.2654   42.0393   13.9348 H   0  0  0  0  0  0  0  0  0  0  0  0
   23.4010   43.0756   14.7888 H   0  0  0  0  0  0  0  0  0  0  0  0
   21.9339   44.7674   14.0634 H   0  0  0  0  0  0  0  0  0  0  0  0
   17.4382   45.4081   14.6932 H   0  0  0  0  0  0  0  0  0  0  0  0
   17.9884   44.9991   13.0612 H   0  0  0  0  0  0  0  0  0  0  0  0
   18.9461   46.0816   14.0715 H   0  0  0  0  0  0  0  0  0  0  0  0
   18.6336   41.8741   14.9722 H   0  0  0  0  0  0  0  0  0  0  0  0
   17.8428   42.5653   13.5562 H   0  0  0  0  0  0  0  0  0  0  0  0
   17.2397   42.9414   15.1830 H   0  0  0  0  0  0  0  0  0  0  0  0
   20.4102   46.0055   18.3149 H   0  0  0  0  0  0  0  0  0  0  0  0
   19.6039   47.0212   17.0785 H   0  0  0  0  0  0  0  0  0  0  0  0
   22.5789   35.9110   17.8755 H   0  0  0  0  0  0  0  0  0  0  0  0
   23.0154   42.9708   20.2052 H   0  0  0  0  0  0  0  0  0  0  0  0
   21.4935   48.3388   17.1074 H   0  0  0  0  0  0  0  0  0  0  0  0
  1  2  1  0  0  0  0
  1 24  1  0  0  0  0
  1 26  2  0  0  0  0
  2  3  2  0  0  0  0
  2 32  1  0  0  0  0
  3  4  1  0  0  0  0
  3 33  1  0  0  0  0
  4  5  1  1  0  0  0
  4  6  1  0  0  0  0
  4 10  1  0  0  0  0
  5 34  1  0  0  0  0
  5 35  1  0  0  0  0
  5 36  1  0  0  0  0
  6  7  1  0  0  0  0
  6 24  2  0  0  0  0
  7  8  1  0  0  0  0
  7 37  1  0  0  0  0
  7 38  1  0  0  0  0
  8  9  1  0  0  0  0
  8 39  1  0  0  0  0
  8 40  1  0  0  0  0
  9 10  1  0  0  0  0
  9 15  1  0  0  0  0
  9 41  1  1  0  0  0
 10 11  1  0  0  0  0
 10 25  1  6  0  0  0
 11 12  1  0  0  0  0
 11 27  1  0  0  0  0
 11 42  1  1  0  0  0
 12 13  1  0  0  0  0
 12 43  1  0  0  0  0
 12 44  1  0  0  0  0
 13 14  1  1  0  0  0
 13 15  1  0  0  0  0
 13 18  1  0  0  0  0
 14 45  1  0  0  0  0
 14 46  1  0  0  0  0
 14 47  1  0  0  0  0
 15 16  1  0  0  0  0
 15 48  1  6  0  0  0
 16 17  1  0  0  0  0
 16 49  1  0  0  0  0
 16 50  1  0  0  0  0
 17 18  1  0  0  0  0
 17 29  1  0  0  0  0
 17 51  1  6  0  0  0
 18 22  1  1  0  0  0
 18 28  1  0  0  0  0
 19 20  1  0  0  0  0
 19 21  1  0  0  0  0
 19 28  1  0  0  0  0
 19 29  1  0  0  0  0
 20 52  1  0  0  0  0
 20 53  1  0  0  0  0
 20 54  1  0  0  0  0
 21 55  1  0  0  0  0
 21 56  1  0  0  0  0
 21 57  1  0  0  0  0
 22 23  1  0  0  0  0
 22 31  2  0  0  0  0
 23 30  1  0  0  0  0
 23 58  1  0  0  0  0
 23 59  1  0  0  0  0
 24 60  1  0  0  0  0
 27 61  1  0  0  0  0
 30 62  1  0  0  0  0
M  END
$$$$
