1VQ
 OpenBabel04161911393D

 27 27  0  0  1  0  0  0  0  0999 V2000
   -5.6958    1.0294   16.5571 S   0  0  0  0  0  0  0  0  0  0  0  0
   -4.9123    1.3943   17.7144 O   0  0  0  0  0  0  0  0  0  0  0  0
   -7.1374    1.0737   16.5595 O   0  0  0  0  0  0  0  0  0  0  0  0
   -5.1901    1.9430   15.3247 O   0  0  0  0  0  0  0  0  0  0  0  0
   -5.2391   -0.5086   16.1631 N   0  0  0  0  0  0  0  0  0  0  0  0
   -3.9030    1.7549   14.7771 C   0  0  0  0  0  0  0  0  0  0  0  0
   -3.8867    2.4685   13.4293 C   0  0  0  0  0  0  0  0  0  0  0  0
   -3.5270    6.0004   13.9245 N   0  3  0  0  0  0  0  0  0  0  0  0
   -6.5120    4.2295   13.0604 N   0  0  0  0  0  0  0  0  0  0  0  0
   -5.2311    4.7034   13.4202 C   0  0  2  0  0  0  0  0  0  0  0  0
   -4.8820    5.9981   13.6720 C   0  0  0  0  0  0  0  0  0  0  0  0
   -3.0248    4.7720   13.8763 C   0  0  1  0  0  0  0  0  0  0  0  0
   -1.5991    4.4021   14.1370 C   0  0  0  0  0  0  0  0  0  0  0  0
   -4.0377    3.9316   13.5576 N   0  3  1  0  0  0  0  0  0  0  0  0
   -7.4075    5.0885   13.0649 O   0  0  0  0  0  0  0  0  0  0  0  0
   -6.6255    3.0474   12.7315 O   0  0  0  0  0  0  0  0  0  0  0  0
   -5.5817   -1.2497   16.7761 H   0  0  0  0  0  0  0  0  0  0  0  0
   -4.8711   -0.7551   15.2552 H   0  0  0  0  0  0  0  0  0  0  0  0
   -3.6984    0.7020   14.5904 H   0  0  0  0  0  0  0  0  0  0  0  0
   -3.1401    2.1412   15.4572 H   0  0  0  0  0  0  0  0  0  0  0  0
   -4.6699    2.0583   12.7958 H   0  0  0  0  0  0  0  0  0  0  0  0
   -2.9434    2.2648   12.9065 H   0  0  0  0  0  0  0  0  0  0  0  0
   -5.4232    6.9306   13.6839 H   0  0  0  0  0  0  0  0  0  0  0  0
   -1.0433    5.3226   14.3222 H   0  0  0  0  0  0  0  0  0  0  0  0
   -1.2282    3.8874   13.2526 H   0  0  0  0  0  0  0  0  0  0  0  0
   -1.5883    3.7602   15.0162 H   0  0  0  0  0  0  0  0  0  0  0  0
   -2.9701    6.8383   14.1344 H   0  0  0  0  0  0  0  0  0  0  0  0
  1  2  2  0  0  0  0
  1  3  2  0  0  0  0
  1  4  1  0  0  0  0
  1  5  1  0  0  0  0
  4  6  1  0  0  0  0
  5 17  1  0  0  0  0
  5 18  1  0  0  0  0
  6  7  1  0  0  0  0
  6 19  1  0  0  0  0
  6 20  1  0  0  0  0
  7 21  1  0  0  0  0
  7 22  1  0  0  0  0
  8 11  1  0  0  0  0
  8 12  1  0  0  0  0
  8 27  1  0  0  0  0
  9 15  2  0  0  0  0
  9 16  2  0  0  0  0
 10  9  1  6  0  0  0
 10 11  1  0  0  0  0
 10 14  1  0  0  0  0
 11 23  1  0  0  0  0
 12 13  1  1  0  0  0
 12 14  1  0  0  0  0
 13 24  1  0  0  0  0
 13 25  1  0  0  0  0
 13 26  1  0  0  0  0
 14  7  1  1  0  0  0
M  CHG  2   8   1  14   1
M  END
$$$$
