2AM
 OpenBabel04161912253D

 35 37  0  0  1  0  0  0  0  0999 V2000
   19.7529   13.8061    1.3020 P   0  0  0  0  0  0  0  0  0  0  0  0
   20.8490   14.7293    1.8122 O   0  0  0  0  0  0  0  0  0  0  0  0
   19.8907   12.3558    1.7228 O   0  0  0  0  0  0  0  0  0  0  0  0
   18.3547   14.3880    1.3257 O   0  0  0  0  0  0  0  0  0  0  0  0
   24.9607   13.9661   -1.3352 O   0  0  0  0  0  0  0  0  0  0  0  0
   24.2570   14.3229   -2.5203 C   0  0  0  0  0  0  0  0  0  0  0  0
   22.8258   13.7879   -2.5294 C   0  0  1  0  0  0  0  0  0  0  0  0
   22.8253   12.3834   -2.1791 O   0  0  0  0  0  0  0  0  0  0  0  0
   21.8942   14.5174   -1.5676 C   0  0  1  0  0  0  0  0  0  0  0  0
   20.7861   15.0546   -2.3195 O   0  0  0  0  0  0  0  0  0  0  0  0
   21.4248   13.4402   -0.6053 C   0  0  1  0  0  0  0  0  0  0  0  0
   20.0778   13.7135   -0.2926 O   0  0  0  0  0  0  0  0  0  0  0  0
   21.6083   12.1609   -1.4013 C   0  0  2  0  0  0  0  0  0  0  0  0
   21.7883   10.9212   -0.6725 N   0  3  0  0  0  0  0  0  0  0  0  0
   22.5609   10.7112    0.4437 C   0  0  0  0  0  0  0  0  0  0  0  0
   22.6508    9.4340    0.7668 N   0  0  0  0  0  0  0  0  0  0  0  0
   21.8186    8.8016   -0.1286 C   0  0  0  0  0  0  0  0  0  0  0  0
   21.4341    7.4537   -0.2597 C   0  0  0  0  0  0  0  0  0  0  0  0
   21.8542    6.4511    0.6241 N   0  0  0  0  0  0  0  0  0  0  0  0
   20.5890    7.1074   -1.2569 N   0  0  0  0  0  0  0  0  0  0  0  0
   20.1759    8.0868   -2.0925 C   0  0  0  0  0  0  0  0  0  0  0  0
   20.4920    9.3934   -2.0901 N   0  0  0  0  0  0  0  0  0  0  0  0
   21.2997    9.6907   -1.0543 C   0  0  0  0  0  0  0  0  0  0  0  0
   24.7229   13.0359   -1.1545 H   0  0  0  0  0  0  0  0  0  0  0  0
   24.8176   13.9000   -3.3599 H   0  0  0  0  0  0  0  0  0  0  0  0
   24.2706   15.4133   -2.6216 H   0  0  0  0  0  0  0  0  0  0  0  0
   22.4443   13.8618   -3.5550 H   0  0  0  0  0  0  0  0  0  0  0  0
   22.3578   15.3628   -1.0503 H   0  0  0  0  0  0  0  0  0  0  0  0
   20.0585   15.0638   -1.6472 H   0  0  0  0  0  0  0  0  0  0  0  0
   22.0903   13.4431    0.2658 H   0  0  0  0  0  0  0  0  0  0  0  0
   20.7796   12.0180   -2.1047 H   0  0  0  0  0  0  0  0  0  0  0  0
   23.0306   11.5246    0.9816 H   0  0  0  0  0  0  0  0  0  0  0  0
   21.1415    5.7352    0.6737 H   0  0  0  0  0  0  0  0  0  0  0  0
   22.1162    6.8812    1.5087 H   0  0  0  0  0  0  0  0  0  0  0  0
   19.4965    7.7723   -2.8797 H   0  0  0  0  0  0  0  0  0  0  0  0
  1  2  2  0  0  0  0
  1  3  1  0  0  0  0
  1  4  1  0  0  0  0
  1 12  1  0  0  0  0
  5  6  1  0  0  0  0
  5 24  1  0  0  0  0
  6  7  1  0  0  0  0
  6 25  1  0  0  0  0
  6 26  1  0  0  0  0
  7  8  1  0  0  0  0
  7  9  1  0  0  0  0
  7 27  1  6  0  0  0
  8 13  1  0  0  0  0
  9 10  1  0  0  0  0
  9 11  1  0  0  0  0
  9 28  1  1  0  0  0
 10 29  1  0  0  0  0
 11 12  1  0  0  0  0
 11 13  1  0  0  0  0
 11 30  1  1  0  0  0
 13 14  1  0  0  0  0
 13 31  1  6  0  0  0
 14 15  2  0  0  0  0
 14 23  1  0  0  0  0
 15 16  1  0  0  0  0
 15 32  1  0  0  0  0
 16 17  1  0  0  0  0
 17 18  2  0  0  0  0
 17 23  1  0  0  0  0
 18 19  1  0  0  0  0
 18 20  1  0  0  0  0
 19 33  1  0  0  0  0
 19 34  1  0  0  0  0
 20 21  2  0  0  0  0
 21 22  1  0  0  0  0
 21 35  1  0  0  0  0
 22 23  2  0  0  0  0
M  CHG  1  14   1
M  END
$$$$
