2AN
 OpenBabel04161909373D

 33 35  0  0  0  0  0  0  0  0999 V2000
  -22.8258    2.2478  -11.5279 C   0  0  0  0  0  0  0  0  0  0  0  0
  -23.5749    1.8621  -12.6616 C   0  0  0  0  0  0  0  0  0  0  0  0
  -24.8373    2.3583  -12.9107 C   0  0  0  0  0  0  0  0  0  0  0  0
  -25.3651    3.2825  -12.0312 C   0  0  0  0  0  0  0  0  0  0  0  0
  -24.6505    3.7061  -10.8970 C   0  0  0  0  0  0  0  0  0  0  0  0
  -25.2863    4.6537  -10.0828 C   0  0  0  0  0  0  0  0  0  0  0  0
  -24.6865    5.1438   -8.9365 C   0  0  0  0  0  0  0  0  0  0  0  0
  -23.4400    4.6752   -8.5709 C   0  0  0  0  0  0  0  0  0  0  0  0
  -21.5860    1.5991  -11.3542 N   0  0  0  0  0  0  0  0  0  0  0  0
  -21.1201    3.2451   -8.7130 S   0  0  0  0  0  0  0  0  0  0  0  0
  -22.7715    3.7168   -9.3590 C   0  0  0  0  0  0  0  0  0  0  0  0
  -23.3501    3.2001  -10.5805 C   0  0  0  0  0  0  0  0  0  0  0  0
  -21.3185    0.2208  -11.2601 C   0  0  0  0  0  0  0  0  0  0  0  0
  -22.2578   -0.7724  -11.5723 C   0  0  0  0  0  0  0  0  0  0  0  0
  -21.9155   -2.1219  -11.5705 C   0  0  0  0  0  0  0  0  0  0  0  0
  -20.6254   -2.5037  -11.2247 C   0  0  0  0  0  0  0  0  0  0  0  0
  -19.6857   -1.5376  -10.8735 C   0  0  0  0  0  0  0  0  0  0  0  0
  -20.0296   -0.1848  -10.8993 C   0  0  0  0  0  0  0  0  0  0  0  0
  -20.2783    3.2645   -9.9142 O   0  0  0  0  0  0  0  0  0  0  0  0
  -21.3610    1.9344   -8.1310 O   0  0  0  0  0  0  0  0  0  0  0  0
  -20.8006    4.3037   -7.7604 O   0  0  0  0  0  0  0  0  0  0  0  0
  -23.1402    1.1531  -13.3621 H   0  0  0  0  0  0  0  0  0  0  0  0
  -25.3910    2.0287  -13.7819 H   0  0  0  0  0  0  0  0  0  0  0  0
  -26.3553    3.6811  -12.2438 H   0  0  0  0  0  0  0  0  0  0  0  0
  -26.2711    5.0328  -10.3487 H   0  0  0  0  0  0  0  0  0  0  0  0
  -25.1863    5.8913   -8.3261 H   0  0  0  0  0  0  0  0  0  0  0  0
  -22.9748    5.0538   -7.6629 H   0  0  0  0  0  0  0  0  0  0  0  0
  -20.8802    2.1908  -10.8895 H   0  0  0  0  0  0  0  0  0  0  0  0
  -23.2828   -0.5114  -11.8092 H   0  0  0  0  0  0  0  0  0  0  0  0
  -22.6664   -2.8624  -11.8293 H   0  0  0  0  0  0  0  0  0  0  0  0
  -20.3568   -3.5550  -11.2093 H   0  0  0  0  0  0  0  0  0  0  0  0
  -18.6864   -1.8248  -10.5691 H   0  0  0  0  0  0  0  0  0  0  0  0
  -19.2982    0.5656  -10.6028 H   0  0  0  0  0  0  0  0  0  0  0  0
  1  2  2  0  0  0  0
  1  9  1  0  0  0  0
  1 12  1  0  0  0  0
  2  3  1  0  0  0  0
  2 22  1  0  0  0  0
  3  4  2  0  0  0  0
  3 23  1  0  0  0  0
  4  5  1  0  0  0  0
  4 24  1  0  0  0  0
  5  6  2  0  0  0  0
  5 12  1  0  0  0  0
  6  7  1  0  0  0  0
  6 25  1  0  0  0  0
  7  8  2  0  0  0  0
  7 26  1  0  0  0  0
  8 11  1  0  0  0  0
  8 27  1  0  0  0  0
  9 13  1  0  0  0  0
  9 28  1  0  0  0  0
 10 11  1  0  0  0  0
 10 19  2  0  0  0  0
 10 20  2  0  0  0  0
 10 21  1  0  0  0  0
 11 12  2  0  0  0  0
 13 14  2  0  0  0  0
 13 18  1  0  0  0  0
 14 15  1  0  0  0  0
 14 29  1  0  0  0  0
 15 16  2  0  0  0  0
 15 30  1  0  0  0  0
 16 17  1  0  0  0  0
 16 31  1  0  0  0  0
 17 18  2  0  0  0  0
 17 32  1  0  0  0  0
 18 33  1  0  0  0  0
M  END
$$$$
