34W
 OpenBabel04161912103D

 59 63  0  0  1  0  0  0  0  0999 V2000
  -14.4132   10.7728    7.1933 C   0  0  0  0  0  0  0  0  0  0  0  0
  -13.3124   10.4423    8.1619 C   0  0  0  0  0  0  0  0  0  0  0  0
  -13.5445    9.9453    9.2593 O   0  0  0  0  0  0  0  0  0  0  0  0
  -12.0553   10.7980    7.7469 N   0  0  0  0  0  0  0  0  0  0  0  0
  -10.9260   10.7649    8.6537 C   0  0  0  0  0  0  0  0  0  0  0  0
   -9.6272   10.3664    7.9586 C   0  0  0  0  0  0  0  0  0  0  0  0
   -9.5693   10.1726    6.7437 O   0  0  0  0  0  0  0  0  0  0  0  0
   -8.5239   10.3529    8.7579 N   0  0  0  0  0  0  0  0  0  0  0  0
   -7.1427   10.3352    8.3205 C   0  0  1  0  0  0  0  0  0  0  0  0
   -6.6580   11.6323    9.0131 C   0  0  0  0  0  0  0  0  0  0  0  0
   -7.5430   11.6832   10.3122 C   0  0  0  0  0  0  0  0  0  0  0  0
   -8.3649   10.3829   10.2085 C   0  0  2  0  0  0  0  0  0  0  0  0
   -7.4117    9.2137   10.3549 C   0  0  0  0  0  0  0  0  0  0  0  0
   -6.6461    9.1869    9.1657 C   0  0  0  0  0  0  0  0  0  0  0  0
   -5.6922    8.2327    8.9311 C   0  0  0  0  0  0  0  0  0  0  0  0
   -5.5061    7.2646    9.9337 C   0  0  0  0  0  0  0  0  0  0  0  0
   -6.2624    7.2458   11.1375 C   0  0  0  0  0  0  0  0  0  0  0  0
   -7.2295    8.2550   11.3377 C   0  0  0  0  0  0  0  0  0  0  0  0
   -6.1013    6.2514   12.1099 N   0  0  0  0  0  0  0  0  0  0  0  0
   -5.3152    5.1000   12.1865 C   0  0  0  0  0  0  0  0  0  0  0  0
   -5.4563    4.3697   13.2988 N   0  0  0  0  0  0  0  0  0  0  0  0
   -4.7082    3.2522   13.3950 C   0  0  0  0  0  0  0  0  0  0  0  0
   -3.8263    2.8266   12.4269 C   0  0  0  0  0  0  0  0  0  0  0  0
   -3.7308    3.6348   11.3173 C   0  0  0  0  0  0  0  0  0  0  0  0
   -4.4677    4.7566   11.2088 N   0  0  0  0  0  0  0  0  0  0  0  0
   -2.7731    3.3869   10.3143 N   0  0  0  0  0  0  0  0  0  0  0  0
   -2.5152    4.3150    9.2499 C   0  0  0  0  0  0  0  0  0  0  0  0
   -3.5354    4.2875    8.0860 C   0  0  0  0  0  0  0  0  0  0  0  0
   -2.3295    4.4205    7.1312 C   0  0  0  0  0  0  0  0  0  0  0  0
   -1.4730    3.7781    8.2413 C   0  0  0  0  0  0  0  0  0  0  0  0
   -3.0363    1.5830   12.5968 C   0  0  0  0  0  0  0  0  0  0  0  0
   -1.6897    1.7813   12.5819 F   0  0  0  0  0  0  0  0  0  0  0  0
   -3.2858    0.6722   11.6121 F   0  0  0  0  0  0  0  0  0  0  0  0
   -3.2938    0.9303   13.7667 F   0  0  0  0  0  0  0  0  0  0  0  0
  -14.0370   11.2828    6.3026 H   0  0  0  0  0  0  0  0  0  0  0  0
  -15.1155   11.4447    7.6983 H   0  0  0  0  0  0  0  0  0  0  0  0
  -14.9299    9.8584    6.8945 H   0  0  0  0  0  0  0  0  0  0  0  0
  -11.8696   11.0276    6.7759 H   0  0  0  0  0  0  0  0  0  0  0  0
  -11.1303   10.1069    9.5007 H   0  0  0  0  0  0  0  0  0  0  0  0
  -10.7985   11.7922    9.0132 H   0  0  0  0  0  0  0  0  0  0  0  0
   -6.9901   10.2550    7.2436 H   0  0  0  0  0  0  0  0  0  0  0  0
   -6.8725   12.5134    8.3960 H   0  0  0  0  0  0  0  0  0  0  0  0
   -5.5892   11.6258    9.2528 H   0  0  0  0  0  0  0  0  0  0  0  0
   -8.2037   12.5581   10.2574 H   0  0  0  0  0  0  0  0  0  0  0  0
   -6.9416   11.7557   11.2232 H   0  0  0  0  0  0  0  0  0  0  0  0
   -9.2847   10.3238   10.7887 H   0  0  0  0  0  0  0  0  0  0  0  0
   -5.1129    8.2026    8.0231 H   0  0  0  0  0  0  0  0  0  0  0  0
   -4.7631    6.5102    9.7505 H   0  0  0  0  0  0  0  0  0  0  0  0
   -7.8421    8.2696   12.2340 H   0  0  0  0  0  0  0  0  0  0  0  0
   -6.6595    6.3325   12.9475 H   0  0  0  0  0  0  0  0  0  0  0  0
   -4.8468    2.6969   14.3210 H   0  0  0  0  0  0  0  0  0  0  0  0
   -2.7271    2.4116   10.0305 H   0  0  0  0  0  0  0  0  0  0  0  0
   -2.2809    5.3213    9.6191 H   0  0  0  0  0  0  0  0  0  0  0  0
   -4.2354    5.1252    8.0370 H   0  0  0  0  0  0  0  0  0  0  0  0
   -4.0956    3.3537    7.9656 H   0  0  0  0  0  0  0  0  0  0  0  0
   -2.0531    5.4579    6.9079 H   0  0  0  0  0  0  0  0  0  0  0  0
   -2.4001    3.8611    6.1955 H   0  0  0  0  0  0  0  0  0  0  0  0
   -1.4139    2.6861    8.1616 H   0  0  0  0  0  0  0  0  0  0  0  0
   -0.4634    4.1820    8.3505 H   0  0  0  0  0  0  0  0  0  0  0  0
  1  2  1  0  0  0  0
  1 35  1  0  0  0  0
  1 36  1  0  0  0  0
  1 37  1  0  0  0  0
  2  3  2  0  0  0  0
  2  4  1  0  0  0  0
  4  5  1  0  0  0  0
  4 38  1  0  0  0  0
  5  6  1  0  0  0  0
  5 39  1  0  0  0  0
  5 40  1  0  0  0  0
  6  7  2  0  0  0  0
  6  8  1  0  0  0  0
  8  9  1  0  0  0  0
  8 12  1  0  0  0  0
  9 10  1  0  0  0  0
  9 14  1  0  0  0  0
  9 41  1  6  0  0  0
 10 11  1  0  0  0  0
 10 42  1  0  0  0  0
 10 43  1  0  0  0  0
 11 12  1  0  0  0  0
 11 44  1  0  0  0  0
 11 45  1  0  0  0  0
 12 13  1  0  0  0  0
 12 46  1  1  0  0  0
 13 14  2  0  0  0  0
 13 18  1  0  0  0  0
 14 15  1  0  0  0  0
 15 16  2  0  0  0  0
 15 47  1  0  0  0  0
 16 17  1  0  0  0  0
 16 48  1  0  0  0  0
 17 18  2  0  0  0  0
 17 19  1  0  0  0  0
 18 49  1  0  0  0  0
 19 20  1  0  0  0  0
 19 50  1  0  0  0  0
 20 21  2  0  0  0  0
 20 25  1  0  0  0  0
 21 22  1  0  0  0  0
 22 23  2  0  0  0  0
 22 51  1  0  0  0  0
 23 24  1  0  0  0  0
 23 31  1  0  0  0  0
 24 25  2  0  0  0  0
 24 26  1  0  0  0  0
 26 27  1  0  0  0  0
 26 52  1  0  0  0  0
 27 28  1  0  0  0  0
 27 30  1  0  0  0  0
 27 53  1  0  0  0  0
 28 29  1  0  0  0  0
 28 54  1  0  0  0  0
 28 55  1  0  0  0  0
 29 30  1  0  0  0  0
 29 56  1  0  0  0  0
 29 57  1  0  0  0  0
 30 58  1  0  0  0  0
 30 59  1  0  0  0  0
 31 32  1  0  0  0  0
 31 33  1  0  0  0  0
 31 34  1  0  0  0  0
M  END
$$$$
