38O
 OpenBabel04161909353D

 51 55  0  0  1  0  0  0  0  0999 V2000
  221.1463    2.4750   31.9385 C   0  0  0  0  0  0  0  0  0  0  0  0
  221.4781    2.7530   29.4693 C   0  0  0  0  0  0  0  0  0  0  0  0
  220.9128    2.3175   28.1083 C   0  0  0  0  0  0  0  0  0  0  0  0
  218.5603    2.4581   29.0664 C   0  0  0  0  0  0  0  0  0  0  0  0
  219.1673    2.8577   30.4297 C   0  0  0  0  0  0  0  0  0  0  0  0
  219.0765    3.2682   26.8037 C   0  0  0  0  0  0  0  0  0  0  0  0
  216.8925    3.8246   22.8391 C   0  0  0  0  0  0  0  0  0  0  0  0
  217.6964    4.8125   23.2082 N   0  0  0  0  0  0  0  0  0  0  0  0
  219.1575    5.1231   25.2093 C   0  0  0  0  0  0  0  0  0  0  0  0
  219.5716    4.5173   26.3974 C   0  0  0  0  0  0  0  0  0  0  0  0
  216.0846    3.6744   21.6588 C   0  0  0  0  0  0  0  0  0  0  0  0
  216.1977    4.5754   20.6445 C   0  0  0  0  0  0  0  0  0  0  0  0
  215.3899    5.2857   18.3195 C   0  0  0  0  0  0  0  0  0  0  0  0
  214.5916    5.0785   17.1884 C   0  0  0  0  0  0  0  0  0  0  0  0
  213.7300    3.9878   17.1294 C   0  0  0  0  0  0  0  0  0  0  0  0
  215.0251    1.6723   22.4199 O   0  0  0  0  0  0  0  0  0  0  0  0
  220.5624    2.2461   30.5851 N   0  3  2  0  0  0  0  0  0  0  0  0
  219.5177    2.7429   28.0006 N   0  0  0  0  0  0  0  0  0  0  0  0
  218.1393    2.5883   26.0051 C   0  0  0  0  0  0  0  0  0  0  0  0
  217.7599    3.2044   24.8096 C   0  0  0  0  0  0  0  0  0  0  0  0
  216.9118    2.8311   23.7983 N   0  3  0  0  0  0  0  0  0  0  0  0
  218.2353    4.4403   24.4118 C   0  0  0  0  0  0  0  0  0  0  0  0
  217.0859    5.6311   20.6595 N   0  0  0  0  0  0  0  0  0  0  0  0
  215.3590    4.4164   19.4195 C   0  0  0  0  0  0  0  0  0  0  0  0
  216.1960    6.3611   18.3105 F   0  0  0  0  0  0  0  0  0  0  0  0
  213.6726    3.1104   18.2102 C   0  0  0  0  0  0  0  0  0  0  0  0
  214.4795    3.3268   19.3372 C   0  0  0  0  0  0  0  0  0  0  0  0
  214.3974    2.4231   20.3927 N   0  3  0  0  0  0  0  0  0  0  0  0
  215.1358    2.5176   21.5379 C   0  0  0  0  0  0  0  0  0  0  0  0
  222.1067    1.9558   31.9808 H   0  0  0  0  0  0  0  0  0  0  0  0
  220.4615    2.0527   32.6773 H   0  0  0  0  0  0  0  0  0  0  0  0
  221.2738    3.5500   32.0859 H   0  0  0  0  0  0  0  0  0  0  0  0
  221.5097    3.8459   29.5549 H   0  0  0  0  0  0  0  0  0  0  0  0
  222.4752    2.3372   29.6377 H   0  0  0  0  0  0  0  0  0  0  0  0
  220.9699    1.2261   28.0146 H   0  0  0  0  0  0  0  0  0  0  0  0
  221.5387    2.7421   27.3139 H   0  0  0  0  0  0  0  0  0  0  0  0
  217.6331    3.0284   28.9297 H   0  0  0  0  0  0  0  0  0  0  0  0
  218.3009    1.3931   29.0680 H   0  0  0  0  0  0  0  0  0  0  0  0
  218.5513    2.4977   31.2586 H   0  0  0  0  0  0  0  0  0  0  0  0
  219.2901    3.9453   30.5052 H   0  0  0  0  0  0  0  0  0  0  0  0
  219.5319    6.0957   24.9111 H   0  0  0  0  0  0  0  0  0  0  0  0
  220.2768    5.0539   27.0285 H   0  0  0  0  0  0  0  0  0  0  0  0
  214.6532    5.7754   16.3585 H   0  0  0  0  0  0  0  0  0  0  0  0
  213.1090    3.8245   16.2493 H   0  0  0  0  0  0  0  0  0  0  0  0
  217.7572    1.6145   26.2811 H   0  0  0  0  0  0  0  0  0  0  0  0
  216.3731    1.9737   23.7446 H   0  0  0  0  0  0  0  0  0  0  0  0
  217.5676    5.8195   21.5435 H   0  0  0  0  0  0  0  0  0  0  0  0
  217.0487    6.3567   19.9531 H   0  0  0  0  0  0  0  0  0  0  0  0
  212.9958    2.2581   18.1652 H   0  0  0  0  0  0  0  0  0  0  0  0
  213.7703    1.6299   20.3381 H   0  0  0  0  0  0  0  0  0  0  0  0
  220.4580    1.2325   30.4487 H   0  0  0  0  0  0  0  0  0  0  0  0
  1 17  1  0  0  0  0
  1 30  1  0  0  0  0
  1 31  1  0  0  0  0
  1 32  1  0  0  0  0
  2  3  1  0  0  0  0
  2 17  1  0  0  0  0
  2 33  1  0  0  0  0
  2 34  1  0  0  0  0
  3 18  1  0  0  0  0
  3 35  1  0  0  0  0
  3 36  1  0  0  0  0
  4  5  1  0  0  0  0
  4 18  1  0  0  0  0
  4 37  1  0  0  0  0
  4 38  1  0  0  0  0
  5 17  1  0  0  0  0
  5 39  1  0  0  0  0
  5 40  1  0  0  0  0
  6 10  2  0  0  0  0
  6 18  1  0  0  0  0
  6 19  1  0  0  0  0
  7  8  1  0  0  0  0
  7 11  1  0  0  0  0
  7 21  2  0  0  0  0
  8 22  1  0  0  0  0
  9 10  1  0  0  0  0
  9 22  2  0  0  0  0
  9 41  1  0  0  0  0
 10 42  1  0  0  0  0
 11 12  2  0  0  0  0
 11 29  1  0  0  0  0
 12 23  1  0  0  0  0
 12 24  1  0  0  0  0
 13 14  2  0  0  0  0
 13 24  1  0  0  0  0
 13 25  1  0  0  0  0
 14 15  1  0  0  0  0
 14 43  1  0  0  0  0
 15 26  2  0  0  0  0
 15 44  1  0  0  0  0
 16 29  2  0  0  0  0
 17 51  1  6  0  0  0
 19 20  2  0  0  0  0
 19 45  1  0  0  0  0
 20 21  1  0  0  0  0
 20 22  1  0  0  0  0
 21 46  1  0  0  0  0
 23 47  1  0  0  0  0
 23 48  1  0  0  0  0
 24 27  2  0  0  0  0
 26 27  1  0  0  0  0
 26 49  1  0  0  0  0
 27 28  1  0  0  0  0
 28 29  1  0  0  0  0
 28 50  1  0  0  0  0
M  CHG  3  17   1  21   1  28   1
M  END
$$$$
