3C7
 OpenBabel04161910083D

 24 25  0  0  1  0  0  0  0  0999 V2000
    3.8107   -0.6496   86.2918 C   0  0  0  0  0  0  0  0  0  0  0  0
    4.7854    1.4535   88.7831 O   0  0  0  0  0  0  0  0  0  0  0  0
    5.1180    1.0113   87.6339 C   0  0  0  0  0  0  0  0  0  0  0  0
    5.6984    1.5368   86.6620 O   0  0  0  0  0  0  0  0  0  0  0  0
    4.7162   -0.4776   87.5045 C   0  0  1  0  0  0  0  0  0  0  0  0
    3.9613   -0.9567   88.7694 N   0  3  2  0  0  0  0  0  0  0  0  0
    4.3652   -2.2890   89.2775 C   0  0  1  0  0  0  0  0  0  0  0  0
    5.5726   -2.1710   90.2285 C   0  0  0  0  0  0  0  0  0  0  0  0
    5.2221   -1.2967   91.7932 S   0  0  0  0  0  0  0  0  0  0  0  0
    2.2621   -1.3947   86.8826 S   0  0  0  0  0  0  0  0  0  0  0  0
    2.5033   -0.8016   88.5712 C   0  0  1  0  0  0  0  0  0  0  0  0
    1.8083   -1.5992   89.6639 C   0  0  0  0  0  0  0  0  0  0  0  0
    2.8690   -3.0305   89.9956 S   0  0  0  0  0  0  0  0  0  0  0  0
    4.2717   -1.3132   85.5539 H   0  0  0  0  0  0  0  0  0  0  0  0
    3.5687    0.2940   85.7924 H   0  0  0  0  0  0  0  0  0  0  0  0
    5.6371   -1.0714   87.4207 H   0  0  0  0  0  0  0  0  0  0  0  0
    4.6388   -2.9038   88.4132 H   0  0  0  0  0  0  0  0  0  0  0  0
    6.3797   -1.6205   89.7305 H   0  0  0  0  0  0  0  0  0  0  0  0
    5.9671   -3.1670   90.4590 H   0  0  0  0  0  0  0  0  0  0  0  0
    6.4339   -1.4574   92.3470 H   0  0  0  0  0  0  0  0  0  0  0  0
    2.2427    0.2600   88.6230 H   0  0  0  0  0  0  0  0  0  0  0  0
    0.7918   -1.9027   89.3965 H   0  0  0  0  0  0  0  0  0  0  0  0
    1.7514   -1.0050   90.5827 H   0  0  0  0  0  0  0  0  0  0  0  0
    4.2245   -0.2040   89.4517 H   0  0  0  0  0  0  0  0  0  0  0  0
  1  5  1  0  0  0  0
  1 10  1  0  0  0  0
  1 14  1  0  0  0  0
  1 15  1  0  0  0  0
  2  3  2  0  0  0  0
  3  4  1  0  0  0  0
  3  5  1  0  0  0  0
  5  6  1  0  0  0  0
  5 16  1  6  0  0  0
  6  7  1  0  0  0  0
  6 11  1  0  0  0  0
  6 24  1  1  0  0  0
  7  8  1  0  0  0  0
  7 13  1  0  0  0  0
  7 17  1  6  0  0  0
  8  9  1  0  0  0  0
  8 18  1  0  0  0  0
  8 19  1  0  0  0  0
  9 20  1  0  0  0  0
 10 11  1  0  0  0  0
 11 12  1  0  0  0  0
 11 21  1  1  0  0  0
 12 13  1  0  0  0  0
 12 22  1  0  0  0  0
 12 23  1  0  0  0  0
M  CHG  1   6   1
M  END
$$$$
