3C7
 OpenBabel04161910073D

 24 25  0  0  1  0  0  0  0  0999 V2000
   81.5021   95.7913   16.8045 C   0  0  0  0  0  0  0  0  0  0  0  0
   82.4596   94.3934   19.0088 O   0  0  0  0  0  0  0  0  0  0  0  0
   83.3378   95.0873   18.4355 C   0  0  0  0  0  0  0  0  0  0  0  0
   84.5576   95.2369   18.7125 O   0  0  0  0  0  0  0  0  0  0  0  0
   82.9912   95.5288   16.9791 C   0  0  1  0  0  0  0  0  0  0  0  0
   83.4101   94.4174   15.9592 N   0  3  2  0  0  0  0  0  0  0  0  0
   83.9995   94.8732   14.6573 C   0  0  1  0  0  0  0  0  0  0  0  0
   85.5256   94.6844   14.6401 C   0  0  0  0  0  0  0  0  0  0  0  0
   86.3489   96.0106   15.5686 S   0  0  0  0  0  0  0  0  0  0  0  0
   80.8393   94.5424   15.6676 S   0  0  0  0  0  0  0  0  0  0  0  0
   82.2845   93.4611   15.8042 C   0  0  1  0  0  0  0  0  0  0  0  0
   82.6124   92.6242   14.5728 C   0  0  0  0  0  0  0  0  0  0  0  0
   83.2853   93.7960   13.3823 S   0  0  0  0  0  0  0  0  0  0  0  0
   81.3416   96.7830   16.3708 H   0  0  0  0  0  0  0  0  0  0  0  0
   80.9341   95.7605   17.7378 H   0  0  0  0  0  0  0  0  0  0  0  0
   83.5768   96.4263   16.7397 H   0  0  0  0  0  0  0  0  0  0  0  0
   83.6879   95.9093   14.4591 H   0  0  0  0  0  0  0  0  0  0  0  0
   85.9195   94.7125   13.6191 H   0  0  0  0  0  0  0  0  0  0  0  0
   85.8064   93.7157   15.0728 H   0  0  0  0  0  0  0  0  0  0  0  0
   87.5916   95.5149   15.5058 H   0  0  0  0  0  0  0  0  0  0  0  0
   82.2046   92.8449   16.6986 H   0  0  0  0  0  0  0  0  0  0  0  0
   81.7605   92.0690   14.1740 H   0  0  0  0  0  0  0  0  0  0  0  0
   83.4123   91.9103   14.8065 H   0  0  0  0  0  0  0  0  0  0  0  0
   84.1560   93.9373   16.5044 H   0  0  0  0  0  0  0  0  0  0  0  0
  1  5  1  0  0  0  0
  1 10  1  0  0  0  0
  1 14  1  0  0  0  0
  1 15  1  0  0  0  0
  2  3  2  0  0  0  0
  3  4  1  0  0  0  0
  3  5  1  0  0  0  0
  5  6  1  0  0  0  0
  5 16  1  6  0  0  0
  6  7  1  0  0  0  0
  6 11  1  0  0  0  0
  6 24  1  1  0  0  0
  7  8  1  0  0  0  0
  7 13  1  0  0  0  0
  7 17  1  6  0  0  0
  8  9  1  0  0  0  0
  8 18  1  0  0  0  0
  8 19  1  0  0  0  0
  9 20  1  0  0  0  0
 10 11  1  0  0  0  0
 11 12  1  0  0  0  0
 11 21  1  1  0  0  0
 12 13  1  0  0  0  0
 12 22  1  0  0  0  0
 12 23  1  0  0  0  0
M  CHG  1   6   1
M  END
$$$$
