3X8
 OpenBabel04161910223D

 44 46  0  0  1  0  0  0  0  0999 V2000
    8.4422   17.1366  -12.7658 C   0  0  2  0  0  0  0  0  0  0  0  0
    7.3968   17.6582  -13.7585 C   0  0  1  0  0  0  0  0  0  0  0  0
    7.9112   17.5402  -15.2036 C   0  0  0  0  0  0  0  0  0  0  0  0
    7.8762   17.1885  -11.3480 C   0  0  2  0  0  0  0  0  0  0  0  0
    2.4303   23.5207  -14.5509 C   0  0  0  0  0  0  0  0  0  0  0  0
    1.6235   24.4881  -15.1699 C   0  0  0  0  0  0  0  0  0  0  0  0
    0.5184   24.1015  -15.9168 C   0  0  0  0  0  0  0  0  0  0  0  0
    0.2159   22.7555  -16.0414 C   0  0  0  0  0  0  0  0  0  0  0  0
    1.0115   21.7867  -15.4123 C   0  0  0  0  0  0  0  0  0  0  0  0
    2.1365   22.1495  -14.6428 C   0  0  0  0  0  0  0  0  0  0  0  0
    2.9537   21.1295  -13.9537 C   0  0  0  0  0  0  0  0  0  0  0  0
    3.5374   21.3883  -12.7014 C   0  0  0  0  0  0  0  0  0  0  0  0
    4.2984   20.4218  -12.0424 C   0  0  0  0  0  0  0  0  0  0  0  0
    3.1663   19.8517  -14.5030 C   0  0  0  0  0  0  0  0  0  0  0  0
    3.9107   18.8714  -13.8330 C   0  0  0  0  0  0  0  0  0  0  0  0
    4.4868   19.1589  -12.6038 C   0  0  0  0  0  0  0  0  0  0  0  0
    5.2725   18.3380  -11.8628 O   0  0  0  0  0  0  0  0  0  0  0  0
    5.5795   17.0125  -12.3141 C   0  0  1  0  0  0  0  0  0  0  0  0
    6.1570   16.9517  -13.6324 O   0  0  0  0  0  0  0  0  0  0  0  0
    8.2777   16.1968  -15.5092 O   0  0  0  0  0  0  0  0  0  0  0  0
    9.6299   17.9478  -12.7772 O   0  0  0  0  0  0  0  0  0  0  0  0
    8.8418   16.6427  -10.4382 O   0  0  0  0  0  0  0  0  0  0  0  0
    6.5448   16.4287  -11.2560 C   0  0  1  0  0  0  0  0  0  0  0  0
    6.7453   15.0217  -11.4352 O   0  0  0  0  0  0  0  0  0  0  0  0
    8.7419   16.1069  -12.9951 H   0  0  0  0  0  0  0  0  0  0  0  0
    7.2101   18.7245  -13.5806 H   0  0  0  0  0  0  0  0  0  0  0  0
    8.8044   18.1579  -15.3388 H   0  0  0  0  0  0  0  0  0  0  0  0
    7.1507   17.8673  -15.9185 H   0  0  0  0  0  0  0  0  0  0  0  0
    7.7298   18.2318  -11.0531 H   0  0  0  0  0  0  0  0  0  0  0  0
    3.2979   23.8611  -13.9848 H   0  0  0  0  0  0  0  0  0  0  0  0
    1.8721   25.5446  -15.0594 H   0  0  0  0  0  0  0  0  0  0  0  0
   -0.1035   24.8479  -16.3888 H   0  0  0  0  0  0  0  0  0  0  0  0
   -0.6476   22.4362  -16.6218 H   0  0  0  0  0  0  0  0  0  0  0  0
    0.7274   20.7413  -15.5116 H   0  0  0  0  0  0  0  0  0  0  0  0
    3.3973   22.3488  -12.2095 H   0  0  0  0  0  0  0  0  0  0  0  0
    4.7459   20.6561  -11.0796 H   0  0  0  0  0  0  0  0  0  0  0  0
    2.7571   19.5994  -15.4791 H   0  0  0  0  0  0  0  0  0  0  0  0
    4.0313   17.9042  -14.3104 H   0  0  0  0  0  0  0  0  0  0  0  0
    4.6633   16.4103  -12.3286 H   0  0  0  0  0  0  0  0  0  0  0  0
    8.5647   16.1740  -16.4377 H   0  0  0  0  0  0  0  0  0  0  0  0
   10.0545   17.8153  -13.6435 H   0  0  0  0  0  0  0  0  0  0  0  0
    9.6752   17.1080  -10.6804 H   0  0  0  0  0  0  0  0  0  0  0  0
    6.1311   16.5604  -10.2497 H   0  0  0  0  0  0  0  0  0  0  0  0
    7.4253   14.7718  -10.7798 H   0  0  0  0  0  0  0  0  0  0  0  0
  1  2  1  0  0  0  0
  1  4  1  0  0  0  0
  1 21  1  0  0  0  0
  1 25  1  6  0  0  0
  2  3  1  0  0  0  0
  2 19  1  0  0  0  0
  2 26  1  1  0  0  0
  3 20  1  0  0  0  0
  3 27  1  0  0  0  0
  3 28  1  0  0  0  0
  4 22  1  0  0  0  0
  4 23  1  0  0  0  0
  4 29  1  1  0  0  0
  5  6  2  0  0  0  0
  5 10  1  0  0  0  0
  5 30  1  0  0  0  0
  6  7  1  0  0  0  0
  6 31  1  0  0  0  0
  7  8  2  0  0  0  0
  7 32  1  0  0  0  0
  8  9  1  0  0  0  0
  8 33  1  0  0  0  0
  9 10  2  0  0  0  0
  9 34  1  0  0  0  0
 10 11  1  0  0  0  0
 11 12  2  0  0  0  0
 11 14  1  0  0  0  0
 12 13  1  0  0  0  0
 12 35  1  0  0  0  0
 13 16  2  0  0  0  0
 13 36  1  0  0  0  0
 14 15  2  0  0  0  0
 14 37  1  0  0  0  0
 15 16  1  0  0  0  0
 15 38  1  0  0  0  0
 16 17  1  0  0  0  0
 17 18  1  0  0  0  0
 18 19  1  0  0  0  0
 18 23  1  0  0  0  0
 18 39  1  1  0  0  0
 20 40  1  0  0  0  0
 21 41  1  0  0  0  0
 22 42  1  0  0  0  0
 23 24  1  0  0  0  0
 23 43  1  1  0  0  0
 24 44  1  0  0  0  0
M  END
$$$$
