478
 OpenBabel04161910573D

 70 72  0  0  1  0  0  0  0  0999 V2000
  -18.6624   16.9328  -25.2735 C   0  0  0  0  0  0  0  0  0  0  0  0
  -19.9218   15.1562  -24.4074 C   0  0  0  0  0  0  0  0  0  0  0  0
  -17.6234   14.8235  -22.4066 C   0  0  0  0  0  0  0  0  0  0  0  0
  -18.5016   15.6375  -24.4942 C   0  0  2  0  0  0  0  0  0  0  0  0
  -16.7156   14.1588  -20.1834 C   0  0  2  0  0  0  0  0  0  0  0  0
  -17.6439   13.7577  -19.0303 C   0  0  1  0  0  0  0  0  0  0  0  0
  -15.4476   14.8709  -19.6776 C   0  0  0  0  0  0  0  0  0  0  0  0
  -14.5432   15.1918  -20.8392 C   0  0  0  0  0  0  0  0  0  0  0  0
  -14.5914   16.4443  -21.4617 C   0  0  0  0  0  0  0  0  0  0  0  0
  -13.7042   14.2047  -21.3584 C   0  0  0  0  0  0  0  0  0  0  0  0
  -13.7852   16.7129  -22.5688 C   0  0  0  0  0  0  0  0  0  0  0  0
  -12.9017   14.4728  -22.4635 C   0  0  0  0  0  0  0  0  0  0  0  0
  -12.9411   15.7284  -23.0667 C   0  0  0  0  0  0  0  0  0  0  0  0
  -17.0529   12.6729  -18.1120 C   0  0  0  0  0  0  0  0  0  0  0  0
  -18.2238   10.4690  -18.3855 C   0  0  0  0  0  0  0  0  0  0  0  0
  -19.5273   10.7437  -19.1551 C   0  0  0  0  0  0  0  0  0  0  0  0
  -15.1606    9.6645  -17.6932 C   0  0  0  0  0  0  0  0  0  0  0  0
  -14.4410   10.3039  -16.6783 C   0  0  0  0  0  0  0  0  0  0  0  0
  -14.0218    9.5881  -15.5466 C   0  0  0  0  0  0  0  0  0  0  0  0
  -14.3015    8.2243  -15.4086 C   0  0  0  0  0  0  0  0  0  0  0  0
  -15.0161    7.5860  -16.4348 C   0  0  0  0  0  0  0  0  0  0  0  0
  -15.4403    8.2926  -17.5828 C   0  0  0  0  0  0  0  0  0  0  0  0
  -19.3466   10.5400  -20.6507 C   0  0  0  0  0  0  0  0  0  0  0  0
  -20.5837    9.7466  -18.6825 C   0  0  0  0  0  0  0  0  0  0  0  0
  -20.7886   16.3906  -24.6461 C   0  0  0  0  0  0  0  0  0  0  0  0
  -17.4403   15.0871  -21.0752 N   0  0  0  0  0  0  0  0  0  0  0  0
  -17.0949   11.3536  -18.7614 N   0  0  0  0  0  0  0  0  0  0  0  0
  -13.8789    7.5458  -14.2761 N   0  0  0  0  0  0  0  0  0  0  0  0
  -18.0556   15.9028  -23.1250 O   0  0  0  0  0  0  0  0  0  0  0  0
  -17.4678   13.6970  -22.9195 O   0  0  0  0  0  0  0  0  0  0  0  0
  -17.9218   14.9395  -18.2608 O   0  0  0  0  0  0  0  0  0  0  0  0
  -14.6056   11.6702  -19.2848 O   0  0  0  0  0  0  0  0  0  0  0  0
  -15.8391    9.6464  -20.2113 O   0  0  0  0  0  0  0  0  0  0  0  0
  -19.9006   17.5060  -24.8086 O   0  0  0  0  0  0  0  0  0  0  0  0
  -15.5972   10.6069  -19.1661 S   0  0  0  0  0  0  0  0  0  0  0  0
  -18.7528   16.7704  -26.3600 H   0  0  0  0  0  0  0  0  0  0  0  0
  -17.8441   17.6218  -25.0759 H   0  0  0  0  0  0  0  0  0  0  0  0
  -20.0655   14.7262  -23.4142 H   0  0  0  0  0  0  0  0  0  0  0  0
  -20.0684   14.3868  -25.1714 H   0  0  0  0  0  0  0  0  0  0  0  0
  -17.8874   14.8840  -25.0095 H   0  0  0  0  0  0  0  0  0  0  0  0
  -16.4363   13.2532  -20.7374 H   0  0  0  0  0  0  0  0  0  0  0  0
  -18.5936   13.4172  -19.4561 H   0  0  0  0  0  0  0  0  0  0  0  0
  -14.9007   14.2520  -18.9565 H   0  0  0  0  0  0  0  0  0  0  0  0
  -15.7126   15.7989  -19.1516 H   0  0  0  0  0  0  0  0  0  0  0  0
  -15.2604   17.2174  -21.0982 H   0  0  0  0  0  0  0  0  0  0  0  0
  -13.6784   13.2194  -20.8995 H   0  0  0  0  0  0  0  0  0  0  0  0
  -13.8160   17.6874  -23.0420 H   0  0  0  0  0  0  0  0  0  0  0  0
  -12.2468   13.7016  -22.8507 H   0  0  0  0  0  0  0  0  0  0  0  0
  -12.3127   15.9355  -23.9274 H   0  0  0  0  0  0  0  0  0  0  0  0
  -17.5979   12.6652  -17.1601 H   0  0  0  0  0  0  0  0  0  0  0  0
  -16.0254   12.9329  -17.8612 H   0  0  0  0  0  0  0  0  0  0  0  0
  -17.9300    9.4364  -18.5806 H   0  0  0  0  0  0  0  0  0  0  0  0
  -18.4223   10.5603  -17.3076 H   0  0  0  0  0  0  0  0  0  0  0  0
  -19.8942   11.7609  -18.9738 H   0  0  0  0  0  0  0  0  0  0  0  0
  -14.1975   11.3597  -16.7680 H   0  0  0  0  0  0  0  0  0  0  0  0
  -13.4683   10.1109  -14.7682 H   0  0  0  0  0  0  0  0  0  0  0  0
  -15.2462    6.5212  -16.3484 H   0  0  0  0  0  0  0  0  0  0  0  0
  -15.9819    7.7725  -18.3719 H   0  0  0  0  0  0  0  0  0  0  0  0
  -20.2860   10.7326  -21.1830 H   0  0  0  0  0  0  0  0  0  0  0  0
  -19.0446    9.5058  -20.8510 H   0  0  0  0  0  0  0  0  0  0  0  0
  -18.5810   11.2147  -21.0363 H   0  0  0  0  0  0  0  0  0  0  0  0
  -20.7607    9.8628  -17.6104 H   0  0  0  0  0  0  0  0  0  0  0  0
  -20.2381    8.7219  -18.8691 H   0  0  0  0  0  0  0  0  0  0  0  0
  -21.5300    9.8902  -19.2155 H   0  0  0  0  0  0  0  0  0  0  0  0
  -21.4794   16.5812  -23.8168 H   0  0  0  0  0  0  0  0  0  0  0  0
  -21.3691   16.3107  -25.5739 H   0  0  0  0  0  0  0  0  0  0  0  0
  -17.7237   15.9608  -20.6593 H   0  0  0  0  0  0  0  0  0  0  0  0
  -13.3592    8.0238  -13.5498 H   0  0  0  0  0  0  0  0  0  0  0  0
  -14.0590    6.5591  -14.1508 H   0  0  0  0  0  0  0  0  0  0  0  0
  -18.5525   14.6912  -17.5699 H   0  0  0  0  0  0  0  0  0  0  0  0
  1  4  1  0  0  0  0
  1 34  1  0  0  0  0
  1 36  1  0  0  0  0
  1 37  1  0  0  0  0
  2  4  1  0  0  0  0
  2 25  1  0  0  0  0
  2 38  1  0  0  0  0
  2 39  1  0  0  0  0
  3 26  1  0  0  0  0
  3 29  1  0  0  0  0
  3 30  2  0  0  0  0
  4 29  1  0  0  0  0
  4 40  1  6  0  0  0
  5  6  1  0  0  0  0
  5  7  1  0  0  0  0
  5 26  1  0  0  0  0
  5 41  1  6  0  0  0
  6 14  1  0  0  0  0
  6 31  1  0  0  0  0
  6 42  1  6  0  0  0
  7  8  1  0  0  0  0
  7 43  1  0  0  0  0
  7 44  1  0  0  0  0
  8  9  2  0  0  0  0
  8 10  1  0  0  0  0
  9 11  1  0  0  0  0
  9 45  1  0  0  0  0
 10 12  2  0  0  0  0
 10 46  1  0  0  0  0
 11 13  2  0  0  0  0
 11 47  1  0  0  0  0
 12 13  1  0  0  0  0
 12 48  1  0  0  0  0
 13 49  1  0  0  0  0
 14 27  1  0  0  0  0
 14 50  1  0  0  0  0
 14 51  1  0  0  0  0
 15 16  1  0  0  0  0
 15 27  1  0  0  0  0
 15 52  1  0  0  0  0
 15 53  1  0  0  0  0
 16 23  1  0  0  0  0
 16 24  1  0  0  0  0
 16 54  1  0  0  0  0
 17 18  2  0  0  0  0
 17 22  1  0  0  0  0
 17 35  1  0  0  0  0
 18 19  1  0  0  0  0
 18 55  1  0  0  0  0
 19 20  2  0  0  0  0
 19 56  1  0  0  0  0
 20 21  1  0  0  0  0
 20 28  1  0  0  0  0
 21 22  2  0  0  0  0
 21 57  1  0  0  0  0
 22 58  1  0  0  0  0
 23 59  1  0  0  0  0
 23 60  1  0  0  0  0
 23 61  1  0  0  0  0
 24 62  1  0  0  0  0
 24 63  1  0  0  0  0
 24 64  1  0  0  0  0
 25 34  1  0  0  0  0
 25 65  1  0  0  0  0
 25 66  1  0  0  0  0
 26 67  1  0  0  0  0
 27 35  1  0  0  0  0
 28 68  1  0  0  0  0
 28 69  1  0  0  0  0
 31 70  1  0  0  0  0
 32 35  2  0  0  0  0
 33 35  2  0  0  0  0
M  END
$$$$
