4UX
 OpenBabel04161909403D

 81 84  0  0  1  0  0  0  0  0999 V2000
   11.6411   17.4039   21.2937 N   0  0  0  0  0  0  0  0  0  0  0  0
   12.6497   18.0745   20.6365 C   0  0  0  0  0  0  0  0  0  0  0  0
   14.4730   19.6539   20.6663 C   0  0  0  0  0  0  0  0  0  0  0  0
   13.8287   18.5452   18.5959 C   0  0  0  0  0  0  0  0  0  0  0  0
   12.8521   17.8432   19.2766 C   0  0  0  0  0  0  0  0  0  0  0  0
   16.3379   19.4296   17.3410 O   0  0  0  0  0  0  0  0  0  0  0  0
   15.2162   21.6666   17.7535 N   0  0  0  0  0  0  0  0  0  0  0  0
   14.2052   22.4577   15.5746 C   0  0  0  0  0  0  0  0  0  0  0  0
   15.4857   22.3437   14.7488 C   0  0  0  0  0  0  0  0  0  0  0  0
   13.0147   22.2361   14.6388 C   0  0  0  0  0  0  0  0  0  0  0  0
   14.9630   22.7821   18.6987 C   0  0  0  0  0  0  0  0  0  0  0  0
   15.8437   23.9877   18.3447 C   0  0  1  0  0  0  0  0  0  0  0  0
   15.3570   25.1647   19.0089 O   0  0  0  0  0  0  0  0  0  0  0  0
   18.9276   24.7717   17.0099 C   0  0  0  0  0  0  0  0  0  0  0  0
   21.6604   28.2118   17.7338 O   0  0  0  0  0  0  0  0  0  0  0  0
   21.6265   27.0221   18.5242 C   0  0  0  0  0  0  0  0  0  0  0  0
   22.1995   25.9126   17.6579 C   0  0  1  0  0  0  0  0  0  0  0  0
   21.9026   26.3590   16.2516 C   0  0  1  0  0  0  0  0  0  0  0  0
   17.6709   23.7136   20.1490 C   0  0  0  0  0  0  0  0  0  0  0  0
   13.4899   18.9410   21.3387 C   0  0  0  0  0  0  0  0  0  0  0  0
   14.6121   19.4734   19.2894 C   0  0  0  0  0  0  0  0  0  0  0  0
   15.9261   20.2804   18.4278 S   0  0  0  0  0  0  0  0  0  0  0  0
   16.8809   20.7245   19.4164 O   0  0  0  0  0  0  0  0  0  0  0  0
   14.1717   21.4289   16.7138 C   0  0  0  0  0  0  0  0  0  0  0  0
   17.3421   23.7963   18.6453 C   0  0  2  0  0  0  0  0  0  0  0  0
   18.0796   24.9061   18.0609 N   0  0  0  0  0  0  0  0  0  0  0  0
   19.1133   23.7517   16.3547 O   0  0  0  0  0  0  0  0  0  0  0  0
   19.5825   25.9205   16.8226 O   0  0  0  0  0  0  0  0  0  0  0  0
   20.5316   25.9681   15.7415 C   0  0  1  0  0  0  0  0  0  0  0  0
   20.1583   27.1594   14.8918 C   0  0  0  0  0  0  0  0  0  0  0  0
   20.7119   28.3015   15.5670 O   0  0  0  0  0  0  0  0  0  0  0  0
   21.8140   27.8715   16.3528 C   0  0  1  0  0  0  0  0  0  0  0  0
   19.9464   24.5417   20.8770 C   0  0  0  0  0  0  0  0  0  0  0  0
   21.3156   24.3475   21.0496 C   0  0  0  0  0  0  0  0  0  0  0  0
   21.8987   23.1256   20.7134 C   0  0  0  0  0  0  0  0  0  0  0  0
   21.1221   22.1008   20.1802 C   0  0  0  0  0  0  0  0  0  0  0  0
   19.7534   22.2904   20.0218 C   0  0  0  0  0  0  0  0  0  0  0  0
   19.1530   23.5068   20.3740 C   0  0  0  0  0  0  0  0  0  0  0  0
   23.7006   25.8970   17.8079 N   0  3  0  0  0  0  0  0  0  0  0  0
   24.2139   25.2222   19.0226 C   0  0  0  0  0  0  0  0  0  0  0  0
   10.9856   16.8477   20.7613 H   0  0  0  0  0  0  0  0  0  0  0  0
   11.4839   17.5659   22.2768 H   0  0  0  0  0  0  0  0  0  0  0  0
   15.1328   20.3178   21.2191 H   0  0  0  0  0  0  0  0  0  0  0  0
   13.9925   18.3534   17.5380 H   0  0  0  0  0  0  0  0  0  0  0  0
   12.2567   17.0965   18.7561 H   0  0  0  0  0  0  0  0  0  0  0  0
   14.1297   23.4684   15.9875 H   0  0  0  0  0  0  0  0  0  0  0  0
   15.4835   23.0771   13.9342 H   0  0  0  0  0  0  0  0  0  0  0  0
   15.5700   21.3474   14.2986 H   0  0  0  0  0  0  0  0  0  0  0  0
   16.3720   22.5190   15.3622 H   0  0  0  0  0  0  0  0  0  0  0  0
   12.0678   22.3110   15.1807 H   0  0  0  0  0  0  0  0  0  0  0  0
   13.0647   21.2459   14.1711 H   0  0  0  0  0  0  0  0  0  0  0  0
   13.0087   22.9847   13.8385 H   0  0  0  0  0  0  0  0  0  0  0  0
   15.1850   22.4718   19.7242 H   0  0  0  0  0  0  0  0  0  0  0  0
   13.9085   23.0738   18.7092 H   0  0  0  0  0  0  0  0  0  0  0  0
   15.7474   24.1820   17.2725 H   0  0  0  0  0  0  0  0  0  0  0  0
   15.3633   25.0058   19.9681 H   0  0  0  0  0  0  0  0  0  0  0  0
   20.6013   26.8010   18.8307 H   0  0  0  0  0  0  0  0  0  0  0  0
   22.2123   27.1980   19.4295 H   0  0  0  0  0  0  0  0  0  0  0  0
   21.8236   24.9167   17.9025 H   0  0  0  0  0  0  0  0  0  0  0  0
   22.6715   26.0630   15.5231 H   0  0  0  0  0  0  0  0  0  0  0  0
   17.1273   22.8943   20.6283 H   0  0  0  0  0  0  0  0  0  0  0  0
   17.3512   24.6288   20.6633 H   0  0  0  0  0  0  0  0  0  0  0  0
   13.3820   19.0417   22.4158 H   0  0  0  0  0  0  0  0  0  0  0  0
   13.1830   21.4115   17.1830 H   0  0  0  0  0  0  0  0  0  0  0  0
   14.3440   20.4453   16.2682 H   0  0  0  0  0  0  0  0  0  0  0  0
   17.6784   22.8714   18.1580 H   0  0  0  0  0  0  0  0  0  0  0  0
   17.9228   25.8536   18.4124 H   0  0  0  0  0  0  0  0  0  0  0  0
   20.5653   25.0354   15.1695 H   0  0  0  0  0  0  0  0  0  0  0  0
   19.0761   27.2809   14.8069 H   0  0  0  0  0  0  0  0  0  0  0  0
   20.6110   27.1063   13.8997 H   0  0  0  0  0  0  0  0  0  0  0  0
   22.7262   28.3617   15.9912 H   0  0  0  0  0  0  0  0  0  0  0  0
   19.4961   25.4975   21.1381 H   0  0  0  0  0  0  0  0  0  0  0  0
   21.9248   25.1448   21.4639 H   0  0  0  0  0  0  0  0  0  0  0  0
   22.9577   22.9591   20.8804 H   0  0  0  0  0  0  0  0  0  0  0  0
   21.5712   21.1499   19.9020 H   0  0  0  0  0  0  0  0  0  0  0  0
   19.1510   21.4807   19.6138 H   0  0  0  0  0  0  0  0  0  0  0  0
   24.1114   25.4245   16.9920 H   0  0  0  0  0  0  0  0  0  0  0  0
   25.3025   25.2899   18.9871 H   0  0  0  0  0  0  0  0  0  0  0  0
   23.8925   24.1818   18.9889 H   0  0  0  0  0  0  0  0  0  0  0  0
   23.8302   25.7433   19.8999 H   0  0  0  0  0  0  0  0  0  0  0  0
   24.0425   26.8702   17.8040 H   0  0  0  0  0  0  0  0  0  0  0  0
  1  2  1  0  0  0  0
  1 41  1  0  0  0  0
  1 42  1  0  0  0  0
  2  5  2  0  0  0  0
  2 20  1  0  0  0  0
  3 20  2  0  0  0  0
  3 21  1  0  0  0  0
  3 43  1  0  0  0  0
  4  5  1  0  0  0  0
  4 21  2  0  0  0  0
  4 44  1  0  0  0  0
  5 45  1  0  0  0  0
  6 22  2  0  0  0  0
  7 11  1  0  0  0  0
  7 22  1  0  0  0  0
  7 24  1  0  0  0  0
  8  9  1  0  0  0  0
  8 10  1  0  0  0  0
  8 24  1  0  0  0  0
  8 46  1  0  0  0  0
  9 47  1  0  0  0  0
  9 48  1  0  0  0  0
  9 49  1  0  0  0  0
 10 50  1  0  0  0  0
 10 51  1  0  0  0  0
 10 52  1  0  0  0  0
 11 12  1  0  0  0  0
 11 53  1  0  0  0  0
 11 54  1  0  0  0  0
 12 13  1  0  0  0  0
 12 25  1  0  0  0  0
 12 55  1  6  0  0  0
 13 56  1  0  0  0  0
 14 26  1  0  0  0  0
 14 27  2  0  0  0  0
 14 28  1  0  0  0  0
 15 16  1  0  0  0  0
 15 32  1  0  0  0  0
 16 17  1  0  0  0  0
 16 57  1  0  0  0  0
 16 58  1  0  0  0  0
 17 18  1  0  0  0  0
 17 39  1  0  0  0  0
 17 59  1  1  0  0  0
 18 29  1  0  0  0  0
 18 32  1  0  0  0  0
 18 60  1  6  0  0  0
 19 25  1  0  0  0  0
 19 38  1  0  0  0  0
 19 61  1  0  0  0  0
 19 62  1  0  0  0  0
 20 63  1  0  0  0  0
 21 22  1  0  0  0  0
 22 23  2  0  0  0  0
 24 64  1  0  0  0  0
 24 65  1  0  0  0  0
 25 26  1  0  0  0  0
 25 66  1  6  0  0  0
 26 67  1  0  0  0  0
 28 29  1  0  0  0  0
 29 30  1  0  0  0  0
 29 68  1  6  0  0  0
 30 31  1  0  0  0  0
 30 69  1  0  0  0  0
 30 70  1  0  0  0  0
 31 32  1  0  0  0  0
 32 71  1  6  0  0  0
 33 34  2  0  0  0  0
 33 38  1  0  0  0  0
 33 72  1  0  0  0  0
 34 35  1  0  0  0  0
 34 73  1  0  0  0  0
 35 36  2  0  0  0  0
 35 74  1  0  0  0  0
 36 37  1  0  0  0  0
 36 75  1  0  0  0  0
 37 38  2  0  0  0  0
 37 76  1  0  0  0  0
 39 40  1  0  0  0  0
 39 77  1  0  0  0  0
 39 81  1  0  0  0  0
 40 78  1  0  0  0  0
 40 79  1  0  0  0  0
 40 80  1  0  0  0  0
M  CHG  1  39   1
M  END
$$$$
