4UY
 OpenBabel04161909403D

 83 86  0  0  1  0  0  0  0  0999 V2000
   21.0946   27.7721   14.7169 C   0  0  0  0  0  0  0  0  0  0  0  0
   19.7393   27.7505   14.3825 C   0  0  0  0  0  0  0  0  0  0  0  0
   18.9403   26.6408   14.6892 C   0  0  0  0  0  0  0  0  0  0  0  0
   19.4989   25.5409   15.3448 C   0  0  0  0  0  0  0  0  0  0  0  0
   20.8576   25.5518   15.6698 C   0  0  0  0  0  0  0  0  0  0  0  0
   21.6448   26.6643   15.3640 C   0  0  0  0  0  0  0  0  0  0  0  0
   18.5009   24.0857   15.6514 S   0  0  0  0  0  0  0  0  0  0  0  0
   17.4309   24.0667   14.6936 O   0  0  0  0  0  0  0  0  0  0  0  0
   19.3912   22.9524   15.7954 O   0  0  0  0  0  0  0  0  0  0  0  0
   17.8186   24.3347   17.1870 N   0  0  0  0  0  0  0  0  0  0  0  0
   18.7563   24.6422   18.2901 C   0  0  0  0  0  0  0  0  0  0  0  0
   18.3972   23.9812   19.6243 C   0  0  0  0  0  0  0  0  0  0  0  0
   18.4248   22.4589   19.5394 C   0  0  0  0  0  0  0  0  0  0  0  0
   19.3957   24.4324   20.6924 C   0  0  0  0  0  0  0  0  0  0  0  0
   16.5634   25.0969   17.2139 C   0  0  0  0  0  0  0  0  0  0  0  0
   15.4130   24.2084   17.7020 C   0  0  1  0  0  0  0  0  0  0  0  0
   14.2690   25.0174   18.0118 O   0  0  0  0  0  0  0  0  0  0  0  0
   15.0377   23.0924   16.7078 C   0  0  1  0  0  0  0  0  0  0  0  0
   14.1397   22.1411   17.3744 N   0  0  0  0  0  0  0  0  0  0  0  0
   14.4518   20.8557   17.6935 C   0  0  0  0  0  0  0  0  0  0  0  0
   15.4979   20.3069   17.4820 O   0  0  0  0  0  0  0  0  0  0  0  0
   13.3397   20.2417   18.1796 O   0  0  0  0  0  0  0  0  0  0  0  0
   13.4418   18.8400   18.5177 C   0  0  1  0  0  0  0  0  0  0  0  0
   12.9688   18.6724   19.9500 C   0  0  0  0  0  0  0  0  0  0  0  0
   11.5335   18.7064   19.8741 O   0  0  0  0  0  0  0  0  0  0  0  0
   11.1440   18.1880   18.6095 C   0  0  1  0  0  0  0  0  0  0  0  0
   10.2657   19.0790   17.9114 O   0  0  0  0  0  0  0  0  0  0  0  0
   10.9307   19.5851   16.7522 C   0  0  0  0  0  0  0  0  0  0  0  0
   12.0170   18.5765   16.4216 C   0  0  1  0  0  0  0  0  0  0  0  0
   12.3990   18.0173   17.7664 C   0  0  1  0  0  0  0  0  0  0  0  0
   11.4015   17.4653   15.5997 N   0  3  0  0  0  0  0  0  0  0  0  0
   11.3785   17.7308   14.1386 C   0  0  0  0  0  0  0  0  0  0  0  0
   14.3065   23.6217   15.4616 C   0  0  0  0  0  0  0  0  0  0  0  0
   12.6849   22.0427   14.3274 C   0  0  0  0  0  0  0  0  0  0  0  0
   12.4175   20.9492   13.5047 C   0  0  0  0  0  0  0  0  0  0  0  0
   13.4568   20.2914   12.8516 C   0  0  0  0  0  0  0  0  0  0  0  0
   14.7684   20.7067   13.0554 C   0  0  0  0  0  0  0  0  0  0  0  0
   15.0370   21.7996   13.8768 C   0  0  0  0  0  0  0  0  0  0  0  0
   13.9974   22.4843   14.5144 C   0  0  0  0  0  0  0  0  0  0  0  0
   21.7825   28.9082   14.3757 O   0  0  0  0  0  0  0  0  0  0  0  0
   23.1837   28.8911   14.6484 C   0  0  0  0  0  0  0  0  0  0  0  0
   19.2976   28.6040   13.8732 H   0  0  0  0  0  0  0  0  0  0  0  0
   17.8942   26.6422   14.4056 H   0  0  0  0  0  0  0  0  0  0  0  0
   21.3198   24.7008   16.1688 H   0  0  0  0  0  0  0  0  0  0  0  0
   22.6962   26.6482   15.6378 H   0  0  0  0  0  0  0  0  0  0  0  0
   18.7721   25.7305   18.4181 H   0  0  0  0  0  0  0  0  0  0  0  0
   19.7595   24.3184   18.0042 H   0  0  0  0  0  0  0  0  0  0  0  0
   17.3978   24.3004   19.9369 H   0  0  0  0  0  0  0  0  0  0  0  0
   18.1869   22.0176   20.5139 H   0  0  0  0  0  0  0  0  0  0  0  0
   19.4165   22.1035   19.2393 H   0  0  0  0  0  0  0  0  0  0  0  0
   17.6927   22.0949   18.8146 H   0  0  0  0  0  0  0  0  0  0  0  0
   19.4044   25.5232   20.7806 H   0  0  0  0  0  0  0  0  0  0  0  0
   20.4101   24.1014   20.4417 H   0  0  0  0  0  0  0  0  0  0  0  0
   19.1329   24.0124   21.6687 H   0  0  0  0  0  0  0  0  0  0  0  0
   16.3348   25.4851   16.2198 H   0  0  0  0  0  0  0  0  0  0  0  0
   16.6642   25.9754   17.8571 H   0  0  0  0  0  0  0  0  0  0  0  0
   15.7153   23.7309   18.6403 H   0  0  0  0  0  0  0  0  0  0  0  0
   14.0067   25.5055   17.2120 H   0  0  0  0  0  0  0  0  0  0  0  0
   15.9549   22.5716   16.4056 H   0  0  0  0  0  0  0  0  0  0  0  0
   13.2013   22.4604   17.5855 H   0  0  0  0  0  0  0  0  0  0  0  0
   14.4544   18.4550   18.3566 H   0  0  0  0  0  0  0  0  0  0  0  0
   13.3168   19.4716   20.6084 H   0  0  0  0  0  0  0  0  0  0  0  0
   13.2538   17.7011   20.3704 H   0  0  0  0  0  0  0  0  0  0  0  0
   10.6089   17.2388   18.7552 H   0  0  0  0  0  0  0  0  0  0  0  0
   11.3538   20.5703   16.9615 H   0  0  0  0  0  0  0  0  0  0  0  0
   10.1938   19.6963   15.9534 H   0  0  0  0  0  0  0  0  0  0  0  0
   12.8565   18.9857   15.8527 H   0  0  0  0  0  0  0  0  0  0  0  0
   12.7034   16.9626   17.7349 H   0  0  0  0  0  0  0  0  0  0  0  0
   11.9177   16.5934   15.7584 H   0  0  0  0  0  0  0  0  0  0  0  0
   10.9094   16.8735   13.6495 H   0  0  0  0  0  0  0  0  0  0  0  0
   12.4090   17.8472   13.8004 H   0  0  0  0  0  0  0  0  0  0  0  0
   10.7884   18.6293   13.9635 H   0  0  0  0  0  0  0  0  0  0  0  0
   14.9042   24.3804   14.9470 H   0  0  0  0  0  0  0  0  0  0  0  0
   13.3710   24.1145   15.7613 H   0  0  0  0  0  0  0  0  0  0  0  0
   11.8648   22.5604   14.8172 H   0  0  0  0  0  0  0  0  0  0  0  0
   11.3917   20.6257   13.3640 H   0  0  0  0  0  0  0  0  0  0  0  0
   13.2532   19.4670   12.1732 H   0  0  0  0  0  0  0  0  0  0  0  0
   15.5916   20.1906   12.5684 H   0  0  0  0  0  0  0  0  0  0  0  0
   16.0680   22.1147   14.0266 H   0  0  0  0  0  0  0  0  0  0  0  0
   23.6152   29.8459   14.3338 H   0  0  0  0  0  0  0  0  0  0  0  0
   23.6771   28.0914   14.0839 H   0  0  0  0  0  0  0  0  0  0  0  0
   23.3697   28.7753   15.7223 H   0  0  0  0  0  0  0  0  0  0  0  0
   10.4362   17.3120   15.9265 H   0  0  0  0  0  0  0  0  0  0  0  0
  1  2  2  0  0  0  0
  1  6  1  0  0  0  0
  1 40  1  0  0  0  0
  2  3  1  0  0  0  0
  2 42  1  0  0  0  0
  3  4  2  0  0  0  0
  3 43  1  0  0  0  0
  4  5  1  0  0  0  0
  4  7  1  0  0  0  0
  5  6  2  0  0  0  0
  5 44  1  0  0  0  0
  6 45  1  0  0  0  0
  7  8  2  0  0  0  0
  7  9  2  0  0  0  0
  7 10  1  0  0  0  0
 10 11  1  0  0  0  0
 10 15  1  0  0  0  0
 11 12  1  0  0  0  0
 11 46  1  0  0  0  0
 11 47  1  0  0  0  0
 12 13  1  0  0  0  0
 12 14  1  0  0  0  0
 12 48  1  0  0  0  0
 13 49  1  0  0  0  0
 13 50  1  0  0  0  0
 13 51  1  0  0  0  0
 14 52  1  0  0  0  0
 14 53  1  0  0  0  0
 14 54  1  0  0  0  0
 15 16  1  0  0  0  0
 15 55  1  0  0  0  0
 15 56  1  0  0  0  0
 16 17  1  0  0  0  0
 16 18  1  0  0  0  0
 16 57  1  1  0  0  0
 17 58  1  0  0  0  0
 18 19  1  0  0  0  0
 18 33  1  0  0  0  0
 18 59  1  6  0  0  0
 19 20  1  0  0  0  0
 19 60  1  0  0  0  0
 20 21  2  0  0  0  0
 20 22  1  0  0  0  0
 22 23  1  0  0  0  0
 23 24  1  0  0  0  0
 23 30  1  0  0  0  0
 23 61  1  6  0  0  0
 24 25  1  0  0  0  0
 24 62  1  0  0  0  0
 24 63  1  0  0  0  0
 25 26  1  0  0  0  0
 26 27  1  0  0  0  0
 26 30  1  0  0  0  0
 26 64  1  1  0  0  0
 27 28  1  0  0  0  0
 28 29  1  0  0  0  0
 28 65  1  0  0  0  0
 28 66  1  0  0  0  0
 29 30  1  0  0  0  0
 29 31  1  0  0  0  0
 29 67  1  6  0  0  0
 30 68  1  6  0  0  0
 31 32  1  0  0  0  0
 31 69  1  0  0  0  0
 31 83  1  0  0  0  0
 32 70  1  0  0  0  0
 32 71  1  0  0  0  0
 32 72  1  0  0  0  0
 33 39  1  0  0  0  0
 33 73  1  0  0  0  0
 33 74  1  0  0  0  0
 34 35  2  0  0  0  0
 34 39  1  0  0  0  0
 34 75  1  0  0  0  0
 35 36  1  0  0  0  0
 35 76  1  0  0  0  0
 36 37  2  0  0  0  0
 36 77  1  0  0  0  0
 37 38  1  0  0  0  0
 37 78  1  0  0  0  0
 38 39  2  0  0  0  0
 38 79  1  0  0  0  0
 40 41  1  0  0  0  0
 41 80  1  0  0  0  0
 41 81  1  0  0  0  0
 41 82  1  0  0  0  0
M  CHG  1  31   1
M  END
$$$$
