4ZK
 OpenBabel04161909443D

 33 34  0  0  1  0  0  0  0  0999 V2000
    6.7248   11.9511   48.0524 N   0  3  0  0  0  0  0  0  0  0  0  0
    8.7181   13.7280   49.2284 C   0  0  0  0  0  0  0  0  0  0  0  0
    8.2644   14.6184   50.2115 C   0  0  0  0  0  0  0  0  0  0  0  0
    9.5230   12.6483   49.6069 C   0  0  0  0  0  0  0  0  0  0  0  0
    9.8653   12.4582   50.9482 C   0  0  0  0  0  0  0  0  0  0  0  0
    9.4105   13.3516   51.9321 C   0  0  0  0  0  0  0  0  0  0  0  0
    8.1495   15.4692   52.5438 C   0  0  0  0  0  0  0  0  0  0  0  0
    7.2562   17.3404   54.3621 C   0  0  0  0  0  0  0  0  0  0  0  0
    6.1875   14.7869   45.7767 O   0  0  0  0  0  0  0  0  0  0  0  0
    6.4258   13.6155   46.1376 C   0  0  0  0  0  0  0  0  0  0  0  0
    6.3502   12.4967   45.5409 O   0  0  0  0  0  0  0  0  0  0  0  0
    6.8255   13.4163   47.6196 C   0  0  2  0  0  0  0  0  0  0  0  0
    8.2685   13.8935   47.7913 C   0  0  0  0  0  0  0  0  0  0  0  0
   10.8339   11.0736   51.3208 Cl  0  0  0  0  0  0  0  0  0  0  0  0
    9.8099   13.0553   53.6009 Cl  0  0  0  0  0  0  0  0  0  0  0  0
    8.6080   14.4602   51.5714 C   0  0  0  0  0  0  0  0  0  0  0  0
    9.0624   16.1871   53.3212 C   0  0  0  0  0  0  0  0  0  0  0  0
    6.7967   15.7762   52.7338 C   0  0  0  0  0  0  0  0  0  0  0  0
    6.3312   16.6918   53.6191 N   0  0  0  0  0  0  0  0  0  0  0  0
    8.6171   17.1196   54.2469 C   0  0  0  0  0  0  0  0  0  0  0  0
    9.5502   17.7635   54.9979 O   0  0  0  0  0  0  0  0  0  0  0  0
    7.0201   11.7806   49.0180 H   0  0  0  0  0  0  0  0  0  0  0  0
    5.7591   11.6549   47.8723 H   0  0  0  0  0  0  0  0  0  0  0  0
    7.6459   15.4667   49.9083 H   0  0  0  0  0  0  0  0  0  0  0  0
    9.8808   11.9402   48.8602 H   0  0  0  0  0  0  0  0  0  0  0  0
    6.8540   18.0613   55.0659 H   0  0  0  0  0  0  0  0  0  0  0  0
    6.1282   13.9635   48.2626 H   0  0  0  0  0  0  0  0  0  0  0  0
    8.9447   13.3437   47.1217 H   0  0  0  0  0  0  0  0  0  0  0  0
    8.3680   14.9493   47.5067 H   0  0  0  0  0  0  0  0  0  0  0  0
   10.1315   16.0134   53.2232 H   0  0  0  0  0  0  0  0  0  0  0  0
    6.0157   15.2760   52.1669 H   0  0  0  0  0  0  0  0  0  0  0  0
    9.0949   18.3661   55.6177 H   0  0  0  0  0  0  0  0  0  0  0  0
    7.2701   11.4170   47.3581 H   0  0  0  0  0  0  0  0  0  0  0  0
  1 12  1  0  0  0  0
  1 22  1  0  0  0  0
  1 23  1  0  0  0  0
  1 33  1  0  0  0  0
  2  3  2  0  0  0  0
  2  4  1  0  0  0  0
  2 13  1  0  0  0  0
  3 16  1  0  0  0  0
  3 24  1  0  0  0  0
  4  5  2  0  0  0  0
  4 25  1  0  0  0  0
  5  6  1  0  0  0  0
  5 14  1  0  0  0  0
  6 15  1  0  0  0  0
  6 16  2  0  0  0  0
  7 16  1  0  0  0  0
  7 17  2  0  0  0  0
  7 18  1  0  0  0  0
  8 19  1  0  0  0  0
  8 20  2  0  0  0  0
  8 26  1  0  0  0  0
  9 10  2  0  0  0  0
 10 11  1  0  0  0  0
 10 12  1  0  0  0  0
 12 13  1  0  0  0  0
 12 27  1  1  0  0  0
 13 28  1  0  0  0  0
 13 29  1  0  0  0  0
 17 20  1  0  0  0  0
 17 30  1  0  0  0  0
 18 19  2  0  0  0  0
 18 31  1  0  0  0  0
 20 21  1  0  0  0  0
 21 32  1  0  0  0  0
M  CHG  1   1   1
M  END
$$$$
