50E
 OpenBabel04161909453D

 48 50  0  0  0  0  0  0  0  0999 V2000
    9.1711    9.4585   34.1814 C   0  0  0  0  0  0  0  0  0  0  0  0
    5.9838   15.1074   31.4181 C   0  0  0  0  0  0  0  0  0  0  0  0
    7.2271   14.5816   31.7415 C   0  0  0  0  0  0  0  0  0  0  0  0
    6.7562   10.5171   33.5632 C   0  0  0  0  0  0  0  0  0  0  0  0
    6.9929   13.2744   32.2318 C   0  0  0  0  0  0  0  0  0  0  0  0
    7.9327   11.2036   33.2773 C   0  0  0  0  0  0  0  0  0  0  0  0
    6.8002    9.2605   34.1791 C   0  0  0  0  0  0  0  0  0  0  0  0
    8.0452    8.7249   34.5026 C   0  0  0  0  0  0  0  0  0  0  0  0
    2.9276   13.8205   32.8370 C   0  0  0  0  0  0  0  0  0  0  0  0
    3.2699   12.9249   30.5037 C   0  0  0  0  0  0  0  0  0  0  0  0
    3.6484   14.0210   31.5019 C   0  0  0  0  0  0  0  0  0  0  0  0
    5.0988   14.0847   31.6854 N   0  3  0  0  0  0  0  0  0  0  0  0
    5.6959   12.9971   32.1851 N   0  0  0  0  0  0  0  0  0  0  0  0
    7.9766   12.4680   32.6806 N   0  0  0  0  0  0  0  0  0  0  0  0
    9.1373   10.6736   33.5851 N   0  0  0  0  0  0  0  0  0  0  0  0
    5.5334    8.5237   34.5142 C   0  0  0  0  0  0  0  0  0  0  0  0
    5.6107    7.1931   34.2320 F   0  0  0  0  0  0  0  0  0  0  0  0
    5.2219    8.6075   35.8366 F   0  0  0  0  0  0  0  0  0  0  0  0
    4.4399    8.9813   33.8426 F   0  0  0  0  0  0  0  0  0  0  0  0
    5.5896   16.4658   30.9187 C   0  0  0  0  0  0  0  0  0  0  0  0
    6.3838   17.5875   31.6071 C   0  0  0  0  0  0  0  0  0  0  0  0
    5.8925   18.9483   31.1389 C   0  0  0  0  0  0  0  0  0  0  0  0
    6.0009   19.0263   29.6501 N   0  3  0  0  0  0  0  0  0  0  0  0
    5.2571   17.9523   28.9233 C   0  0  0  0  0  0  0  0  0  0  0  0
    5.7428   16.5876   29.3953 C   0  0  0  0  0  0  0  0  0  0  0  0
   10.1653    9.0804   34.4031 H   0  0  0  0  0  0  0  0  0  0  0  0
    8.1828   15.0795   31.6711 H   0  0  0  0  0  0  0  0  0  0  0  0
    5.7899   10.9458   33.3214 H   0  0  0  0  0  0  0  0  0  0  0  0
    8.1367    7.7610   34.9927 H   0  0  0  0  0  0  0  0  0  0  0  0
    1.8423   13.8006   32.6934 H   0  0  0  0  0  0  0  0  0  0  0  0
    3.1630   14.6326   33.5335 H   0  0  0  0  0  0  0  0  0  0  0  0
    3.2172   12.8786   33.3173 H   0  0  0  0  0  0  0  0  0  0  0  0
    3.7772   13.0805   29.5454 H   0  0  0  0  0  0  0  0  0  0  0  0
    2.1906   12.9245   30.3205 H   0  0  0  0  0  0  0  0  0  0  0  0
    3.5480   11.9300   30.8696 H   0  0  0  0  0  0  0  0  0  0  0  0
    3.3237   14.9753   31.0802 H   0  0  0  0  0  0  0  0  0  0  0  0
    8.9481   12.7411   32.6183 H   0  0  0  0  0  0  0  0  0  0  0  0
    4.5360   16.6399   31.1685 H   0  0  0  0  0  0  0  0  0  0  0  0
    7.4552   17.4928   31.3855 H   0  0  0  0  0  0  0  0  0  0  0  0
    6.2783   17.5161   32.6962 H   0  0  0  0  0  0  0  0  0  0  0  0
    6.4988   19.7610   31.5484 H   0  0  0  0  0  0  0  0  0  0  0  0
    4.8413   19.1159   31.3970 H   0  0  0  0  0  0  0  0  0  0  0  0
    5.6565   19.9451   29.3375 H   0  0  0  0  0  0  0  0  0  0  0  0
    5.4384   18.1034   27.8554 H   0  0  0  0  0  0  0  0  0  0  0  0
    4.1920   18.0996   29.1320 H   0  0  0  0  0  0  0  0  0  0  0  0
    5.1728   15.8021   28.8848 H   0  0  0  0  0  0  0  0  0  0  0  0
    6.7936   16.4511   29.1053 H   0  0  0  0  0  0  0  0  0  0  0  0
    6.9943   19.0020   29.3764 H   0  0  0  0  0  0  0  0  0  0  0  0
  1  8  2  0  0  0  0
  1 15  1  0  0  0  0
  1 26  1  0  0  0  0
  2  3  1  0  0  0  0
  2 12  2  0  0  0  0
  2 20  1  0  0  0  0
  3  5  2  0  0  0  0
  3 27  1  0  0  0  0
  4  6  1  0  0  0  0
  4  7  2  0  0  0  0
  4 28  1  0  0  0  0
  5 13  1  0  0  0  0
  5 14  1  0  0  0  0
  6 14  1  0  0  0  0
  6 15  2  0  0  0  0
  7  8  1  0  0  0  0
  7 16  1  0  0  0  0
  8 29  1  0  0  0  0
  9 11  1  0  0  0  0
  9 30  1  0  0  0  0
  9 31  1  0  0  0  0
  9 32  1  0  0  0  0
 10 11  1  0  0  0  0
 10 33  1  0  0  0  0
 10 34  1  0  0  0  0
 10 35  1  0  0  0  0
 11 12  1  0  0  0  0
 11 36  1  0  0  0  0
 12 13  1  0  0  0  0
 14 37  1  0  0  0  0
 16 17  1  0  0  0  0
 16 18  1  0  0  0  0
 16 19  1  0  0  0  0
 20 21  1  0  0  0  0
 20 25  1  0  0  0  0
 20 38  1  0  0  0  0
 21 22  1  0  0  0  0
 21 39  1  0  0  0  0
 21 40  1  0  0  0  0
 22 23  1  0  0  0  0
 22 41  1  0  0  0  0
 22 42  1  0  0  0  0
 23 24  1  0  0  0  0
 23 43  1  0  0  0  0
 23 48  1  0  0  0  0
 24 25  1  0  0  0  0
 24 44  1  0  0  0  0
 24 45  1  0  0  0  0
 25 46  1  0  0  0  0
 25 47  1  0  0  0  0
M  CHG  2  12   1  23   1
M  END
$$$$
