51J
 OpenBabel04161909363D

 32 32  0  0  0  0  0  0  0  0999 V2000
   -6.2598    5.9322   14.9994 O   0  0  0  0  0  0  0  0  0  0  0  0
   -5.6474    5.5501   13.7376 S   0  0  0  0  0  0  0  0  0  0  0  0
   -6.3486    5.7808   12.5095 O   0  0  0  0  0  0  0  0  0  0  0  0
   -4.2211    6.3640   13.6763 N   0  0  0  0  0  0  0  0  0  0  0  0
   -3.3978    6.3751   14.8380 C   0  0  0  0  0  0  0  0  0  0  0  0
   -2.4903    7.4946   14.7949 C   0  0  0  0  0  0  0  0  0  0  0  0
   -1.7273    8.4393   14.7690 C   0  0  0  0  0  0  0  0  0  0  0  0
   -0.8394    9.5593   14.7245 C   0  0  0  0  0  0  0  0  0  0  0  0
   -5.2361    3.8323   13.8578 C   0  0  0  0  0  0  0  0  0  0  0  0
   -4.5425    3.1595   12.8453 C   0  0  0  0  0  0  0  0  0  0  0  0
   -4.2946    1.7934   13.0476 C   0  0  0  0  0  0  0  0  0  0  0  0
   -4.1321    3.7890   11.5321 C   0  0  0  0  0  0  0  0  0  0  0  0
   -4.6080    3.2719   10.4753 O   0  0  0  0  0  0  0  0  0  0  0  0
   -3.3229    4.7625   11.5796 O   0  0  0  0  0  0  0  0  0  0  0  0
   -5.6731    3.1560   15.0121 C   0  0  0  0  0  0  0  0  0  0  0  0
   -5.3586    1.8176   15.2000 C   0  0  0  0  0  0  0  0  0  0  0  0
   -4.6834    1.1313   14.2077 C   0  0  0  0  0  0  0  0  0  0  0  0
   -5.9425    1.0478   16.6604 S   0  0  0  0  0  0  0  0  0  0  0  0
   -7.3576    1.2869   16.7320 O   0  0  0  0  0  0  0  0  0  0  0  0
   -5.0389    1.3788   17.7386 O   0  0  0  0  0  0  0  0  0  0  0  0
   -5.7377   -0.5884   16.4109 N   0  0  0  0  0  0  0  0  0  0  0  0
   -3.9495    6.7667   12.7797 H   0  0  0  0  0  0  0  0  0  0  0  0
   -2.8277    5.4510   14.9111 H   0  0  0  0  0  0  0  0  0  0  0  0
   -4.0329    6.4851   15.7219 H   0  0  0  0  0  0  0  0  0  0  0  0
    0.0720    9.3360   15.2898 H   0  0  0  0  0  0  0  0  0  0  0  0
   -1.3262   10.4379   15.1649 H   0  0  0  0  0  0  0  0  0  0  0  0
   -0.5712    9.7832   13.6861 H   0  0  0  0  0  0  0  0  0  0  0  0
   -3.7982    1.2295   12.2635 H   0  0  0  0  0  0  0  0  0  0  0  0
   -6.2748    3.6741   15.7600 H   0  0  0  0  0  0  0  0  0  0  0  0
   -4.4501    0.0831   14.2853 H   0  0  0  0  0  0  0  0  0  0  0  0
   -6.0080   -1.2161   17.1547 H   0  0  0  0  0  0  0  0  0  0  0  0
   -5.3350   -0.9306   15.5555 H   0  0  0  0  0  0  0  0  0  0  0  0
  1  2  2  0  0  0  0
  2  3  2  0  0  0  0
  2  4  1  0  0  0  0
  2  9  1  0  0  0  0
  4  5  1  0  0  0  0
  4 22  1  0  0  0  0
  5  6  1  0  0  0  0
  5 23  1  0  0  0  0
  5 24  1  0  0  0  0
  6  7  3  0  0  0  0
  7  8  1  0  0  0  0
  8 25  1  0  0  0  0
  8 26  1  0  0  0  0
  8 27  1  0  0  0  0
  9 10  2  0  0  0  0
  9 15  1  0  0  0  0
 10 11  1  0  0  0  0
 10 12  1  0  0  0  0
 11 17  2  0  0  0  0
 11 28  1  0  0  0  0
 12 13  2  0  0  0  0
 12 14  1  0  0  0  0
 15 16  2  0  0  0  0
 15 29  1  0  0  0  0
 16 17  1  0  0  0  0
 16 18  1  0  0  0  0
 17 30  1  0  0  0  0
 18 19  2  0  0  0  0
 18 20  2  0  0  0  0
 18 21  1  0  0  0  0
 21 31  1  0  0  0  0
 21 32  1  0  0  0  0
M  END
$$$$
