520
 OpenBabel04161909463D

 41 43  0  0  0  0  0  0  0  0999 V2000
   67.9474   39.2891   -6.6168 C   0  0  0  0  0  0  0  0  0  0  0  0
   69.0192   39.7805   -7.3612 C   0  0  0  0  0  0  0  0  0  0  0  0
   69.9001   38.9088   -8.0143 C   0  0  0  0  0  0  0  0  0  0  0  0
   71.0631   39.4034   -8.6036 N   0  0  0  0  0  0  0  0  0  0  0  0
   69.7247   37.5278   -7.8598 C   0  0  0  0  0  0  0  0  0  0  0  0
   68.6543   37.0194   -7.1242 C   0  0  0  0  0  0  0  0  0  0  0  0
   67.7750   37.9101   -6.5120 C   0  0  0  0  0  0  0  0  0  0  0  0
   66.6831   37.3818   -5.6849 C   0  0  0  0  0  0  0  0  0  0  0  0
   65.6436   37.0518   -6.2297 O   0  0  0  0  0  0  0  0  0  0  0  0
   66.8686   37.2697   -4.2175 C   0  0  0  0  0  0  0  0  0  0  0  0
   68.1308   37.4261   -3.6352 C   0  0  0  0  0  0  0  0  0  0  0  0
   68.2746   37.3158   -2.2568 C   0  0  0  0  0  0  0  0  0  0  0  0
   65.7604   37.0063   -3.4264 C   0  0  0  0  0  0  0  0  0  0  0  0
   65.9075   36.9207   -2.0349 C   0  0  0  0  0  0  0  0  0  0  0  0
   67.1681   37.0754   -1.4230 C   0  0  0  0  0  0  0  0  0  0  0  0
   67.3206   37.0161    0.0398 C   0  0  0  0  0  0  0  0  0  0  0  0
   68.3778   37.6840    0.6900 C   0  0  0  0  0  0  0  0  0  0  0  0
   68.4937   37.6855    2.0767 C   0  0  0  0  0  0  0  0  0  0  0  0
   67.5350   37.0171    2.8334 C   0  0  0  0  0  0  0  0  0  0  0  0
   67.3203   38.4556    4.9766 O   0  0  0  0  0  0  0  0  0  0  0  0
   66.8558   35.9717    5.1228 O   0  0  0  0  0  0  0  0  0  0  0  0
   66.4935   36.3229    2.2261 C   0  0  0  0  0  0  0  0  0  0  0  0
   66.3962   36.3194    0.8391 C   0  0  0  0  0  0  0  0  0  0  0  0
   67.5967   37.0924    4.5922 S   0  0  0  0  0  0  0  0  0  0  0  0
   69.1951   36.7943    4.9351 N   0  0  0  0  0  0  0  0  0  0  0  0
   67.2691   39.9725   -6.1125 H   0  0  0  0  0  0  0  0  0  0  0  0
   69.1628   40.8555   -7.4285 H   0  0  0  0  0  0  0  0  0  0  0  0
   71.5458   38.7830   -9.2456 H   0  0  0  0  0  0  0  0  0  0  0  0
   71.0457   40.3749   -8.8970 H   0  0  0  0  0  0  0  0  0  0  0  0
   70.4254   36.8326   -8.3141 H   0  0  0  0  0  0  0  0  0  0  0  0
   68.5253   35.9470   -7.0062 H   0  0  0  0  0  0  0  0  0  0  0  0
   69.0200   37.6274   -4.2244 H   0  0  0  0  0  0  0  0  0  0  0  0
   69.2762   37.4218   -1.8492 H   0  0  0  0  0  0  0  0  0  0  0  0
   64.7733   36.8743   -3.8603 H   0  0  0  0  0  0  0  0  0  0  0  0
   65.0096   36.7519   -1.4458 H   0  0  0  0  0  0  0  0  0  0  0  0
   69.1157   38.2518    0.1255 H   0  0  0  0  0  0  0  0  0  0  0  0
   69.3055   38.2379    2.5428 H   0  0  0  0  0  0  0  0  0  0  0  0
   65.7388   35.8076    2.8160 H   0  0  0  0  0  0  0  0  0  0  0  0
   65.5688   35.7702    0.3949 H   0  0  0  0  0  0  0  0  0  0  0  0
   69.4530   36.8133    5.9150 H   0  0  0  0  0  0  0  0  0  0  0  0
   69.8705   36.6102    4.2054 H   0  0  0  0  0  0  0  0  0  0  0  0
  1  2  2  0  0  0  0
  1  7  1  0  0  0  0
  1 26  1  0  0  0  0
  2  3  1  0  0  0  0
  2 27  1  0  0  0  0
  3  4  1  0  0  0  0
  3  5  2  0  0  0  0
  4 28  1  0  0  0  0
  4 29  1  0  0  0  0
  5  6  1  0  0  0  0
  5 30  1  0  0  0  0
  6  7  2  0  0  0  0
  6 31  1  0  0  0  0
  7  8  1  0  0  0  0
  8  9  2  0  0  0  0
  8 10  1  0  0  0  0
 10 11  2  0  0  0  0
 10 13  1  0  0  0  0
 11 12  1  0  0  0  0
 11 32  1  0  0  0  0
 12 15  2  0  0  0  0
 12 33  1  0  0  0  0
 13 14  2  0  0  0  0
 13 34  1  0  0  0  0
 14 15  1  0  0  0  0
 14 35  1  0  0  0  0
 15 16  1  0  0  0  0
 16 17  2  0  0  0  0
 16 23  1  0  0  0  0
 17 18  1  0  0  0  0
 17 36  1  0  0  0  0
 18 19  2  0  0  0  0
 18 37  1  0  0  0  0
 19 22  1  0  0  0  0
 19 24  1  0  0  0  0
 20 24  2  0  0  0  0
 21 24  2  0  0  0  0
 22 23  2  0  0  0  0
 22 38  1  0  0  0  0
 23 39  1  0  0  0  0
 24 25  1  0  0  0  0
 25 40  1  0  0  0  0
 25 41  1  0  0  0  0
M  END
$$$$
