55L
 OpenBabel04161909483D

 73 75  0  0  1  0  0  0  0  0999 V2000
   11.0439   32.4217   10.3605 O   0  0  0  0  0  0  0  0  0  0  0  0
   10.3599   31.5138   10.9114 C   0  0  0  0  0  0  0  0  0  0  0  0
   10.1898   31.2814   12.1419 O   0  0  0  0  0  0  0  0  0  0  0  0
    9.6354   30.5453    9.9667 C   0  0  0  0  0  0  0  0  0  0  0  0
    9.0167   31.3450    8.8273 C   0  0  0  0  0  0  0  0  0  0  0  0
    8.0206   30.5544    7.9688 C   0  0  1  0  0  0  0  0  0  0  0  0
    6.9965   31.5798    7.4329 C   0  0  0  0  0  0  0  0  0  0  0  0
    7.4851   32.4469    6.4921 N   0  0  0  0  0  0  0  0  0  0  0  0
    5.8811   31.7508    7.9209 O   0  0  0  0  0  0  0  0  0  0  0  0
    8.7157   29.9507    6.8360 N   0  0  0  0  0  0  0  0  0  0  0  0
    8.0562   29.1980    5.8874 C   0  0  0  0  0  0  0  0  0  0  0  0
    6.8533   28.9454    5.9282 O   0  0  0  0  0  0  0  0  0  0  0  0
    8.9718   28.7696    4.7262 C   0  0  2  0  0  0  0  0  0  0  0  0
    9.4245   29.9487    3.8515 C   0  0  0  0  0  0  0  0  0  0  0  0
    8.2912   30.6554    3.1057 C   0  0  0  0  0  0  0  0  0  0  0  0
    8.8102   31.7832    2.2097 C   0  0  0  0  0  0  0  0  0  0  0  0
    9.6596   32.5542    2.7407 O   0  0  0  0  0  0  0  0  0  0  0  0
    8.2912   31.8405    1.0600 O   0  0  0  0  0  0  0  0  0  0  0  0
    8.3587   27.7116    3.9358 N   0  0  0  0  0  0  0  0  0  0  0  0
    9.0306   26.5444    3.7054 C   0  0  0  0  0  0  0  0  0  0  0  0
   10.1302   26.3064    4.2154 O   0  0  0  0  0  0  0  0  0  0  0  0
    8.3704   25.5763    2.7408 C   0  0  1  0  0  0  0  0  0  0  0  0
    9.2956   25.5187    1.5111 C   0  0  0  0  0  0  0  0  0  0  0  0
    8.6628   24.7210    0.3814 C   0  0  0  0  0  0  0  0  0  0  0  0
    9.1304   23.5581    0.2164 O   0  0  0  0  0  0  0  0  0  0  0  0
    7.7350   25.3026   -0.2444 O   0  0  0  0  0  0  0  0  0  0  0  0
    8.3068   24.2048    3.4270 C   0  0  0  0  0  0  0  0  0  0  0  0
    7.1120   23.9451    4.2678 C   0  0  0  0  0  0  0  0  0  0  0  0
    5.7683   24.2485    4.2230 C   0  0  0  0  0  0  0  0  0  0  0  0
    7.3258   23.0948    5.3061 O   0  0  0  0  0  0  0  0  0  0  0  0
    6.1433   22.8240    5.9514 N   0  0  0  0  0  0  0  0  0  0  0  0
    5.1924   23.5163    5.3015 C   0  0  0  0  0  0  0  0  0  0  0  0
    3.7894   23.4267    5.7160 C   0  0  0  0  0  0  0  0  0  0  0  0
    3.4192   22.6340    6.8133 C   0  0  0  0  0  0  0  0  0  0  0  0
    2.0823   22.5328    7.2112 C   0  0  0  0  0  0  0  0  0  0  0  0
    2.7867   24.1135    5.0234 C   0  0  0  0  0  0  0  0  0  0  0  0
    1.4484   24.0095    5.4245 C   0  0  0  0  0  0  0  0  0  0  0  0
    1.0732   23.2205    6.5222 C   0  0  0  0  0  0  0  0  0  0  0  0
   -0.3350   23.1319    6.9350 C   0  0  0  0  0  0  0  0  0  0  0  0
   -0.9297   21.8945    7.2290 C   0  0  0  0  0  0  0  0  0  0  0  0
   -1.1300   24.2886    7.0298 C   0  0  0  0  0  0  0  0  0  0  0  0
   -2.4736   24.2158    7.3981 C   0  0  0  0  0  0  0  0  0  0  0  0
   -3.0469   22.9801    7.6847 C   0  0  0  0  0  0  0  0  0  0  0  0
   -2.2732   21.8252    7.5982 C   0  0  0  0  0  0  0  0  0  0  0  0
   -2.9836   20.2972    7.9508 Cl  0  0  0  0  0  0  0  0  0  0  0  0
    8.8581   30.0070   10.5205 H   0  0  0  0  0  0  0  0  0  0  0  0
   10.3538   29.8099    9.5883 H   0  0  0  0  0  0  0  0  0  0  0  0
    9.8214   31.7318    8.1854 H   0  0  0  0  0  0  0  0  0  0  0  0
    8.5184   32.2255    9.2507 H   0  0  0  0  0  0  0  0  0  0  0  0
    7.4870   29.7731    8.5218 H   0  0  0  0  0  0  0  0  0  0  0  0
    6.8657   33.1291    6.0854 H   0  0  0  0  0  0  0  0  0  0  0  0
    8.4003   32.3153    6.0746 H   0  0  0  0  0  0  0  0  0  0  0  0
    9.7262   29.8793    6.8822 H   0  0  0  0  0  0  0  0  0  0  0  0
    9.8731   28.3640    5.2034 H   0  0  0  0  0  0  0  0  0  0  0  0
   10.1557   29.5829    3.1183 H   0  0  0  0  0  0  0  0  0  0  0  0
    9.9574   30.6744    4.4788 H   0  0  0  0  0  0  0  0  0  0  0  0
    7.5900   31.1042    3.8176 H   0  0  0  0  0  0  0  0  0  0  0  0
    7.7284   29.9391    2.4973 H   0  0  0  0  0  0  0  0  0  0  0  0
    7.4063   27.8506    3.6245 H   0  0  0  0  0  0  0  0  0  0  0  0
    7.3769   25.9382    2.4482 H   0  0  0  0  0  0  0  0  0  0  0  0
   10.2594   25.0681    1.7847 H   0  0  0  0  0  0  0  0  0  0  0  0
    9.5249   26.5293    1.1477 H   0  0  0  0  0  0  0  0  0  0  0  0
    9.1889   24.0685    4.0678 H   0  0  0  0  0  0  0  0  0  0  0  0
    8.3497   23.3992    2.6894 H   0  0  0  0  0  0  0  0  0  0  0  0
    5.2785   24.8748    3.4934 H   0  0  0  0  0  0  0  0  0  0  0  0
    4.1755   22.0886    7.3762 H   0  0  0  0  0  0  0  0  0  0  0  0
    1.8452   21.9279    8.0764 H   0  0  0  0  0  0  0  0  0  0  0  0
    3.0270   24.7471    4.1775 H   0  0  0  0  0  0  0  0  0  0  0  0
    0.7006   24.5588    4.8574 H   0  0  0  0  0  0  0  0  0  0  0  0
   -0.3485   20.9788    7.1507 H   0  0  0  0  0  0  0  0  0  0  0  0
   -0.6950   25.2655    6.8203 H   0  0  0  0  0  0  0  0  0  0  0  0
   -3.0644   25.1255    7.4593 H   0  0  0  0  0  0  0  0  0  0  0  0
   -4.0915   22.9238    7.9731 H   0  0  0  0  0  0  0  0  0  0  0  0
  1  2  2  0  0  0  0
  2  3  1  0  0  0  0
  2  4  1  0  0  0  0
  4  5  1  0  0  0  0
  4 46  1  0  0  0  0
  4 47  1  0  0  0  0
  5  6  1  0  0  0  0
  5 48  1  0  0  0  0
  5 49  1  0  0  0  0
  6  7  1  0  0  0  0
  6 10  1  0  0  0  0
  6 50  1  1  0  0  0
  7  8  1  0  0  0  0
  7  9  2  0  0  0  0
  8 51  1  0  0  0  0
  8 52  1  0  0  0  0
 10 11  1  0  0  0  0
 10 53  1  0  0  0  0
 11 12  2  0  0  0  0
 11 13  1  0  0  0  0
 13 14  1  0  0  0  0
 13 19  1  0  0  0  0
 13 54  1  1  0  0  0
 14 15  1  0  0  0  0
 14 55  1  0  0  0  0
 14 56  1  0  0  0  0
 15 16  1  0  0  0  0
 15 57  1  0  0  0  0
 15 58  1  0  0  0  0
 16 17  2  0  0  0  0
 16 18  1  0  0  0  0
 19 20  1  0  0  0  0
 19 59  1  0  0  0  0
 20 21  2  0  0  0  0
 20 22  1  0  0  0  0
 22 23  1  0  0  0  0
 22 27  1  0  0  0  0
 22 60  1  6  0  0  0
 23 24  1  0  0  0  0
 23 61  1  0  0  0  0
 23 62  1  0  0  0  0
 24 25  2  0  0  0  0
 24 26  1  0  0  0  0
 27 28  1  0  0  0  0
 27 63  1  0  0  0  0
 27 64  1  0  0  0  0
 28 29  2  0  0  0  0
 28 30  1  0  0  0  0
 29 32  1  0  0  0  0
 29 65  1  0  0  0  0
 30 31  1  0  0  0  0
 31 32  2  0  0  0  0
 32 33  1  0  0  0  0
 33 34  2  0  0  0  0
 33 36  1  0  0  0  0
 34 35  1  0  0  0  0
 34 66  1  0  0  0  0
 35 38  2  0  0  0  0
 35 67  1  0  0  0  0
 36 37  2  0  0  0  0
 36 68  1  0  0  0  0
 37 38  1  0  0  0  0
 37 69  1  0  0  0  0
 38 39  1  0  0  0  0
 39 40  2  0  0  0  0
 39 41  1  0  0  0  0
 40 44  1  0  0  0  0
 40 70  1  0  0  0  0
 41 42  2  0  0  0  0
 41 71  1  0  0  0  0
 42 43  1  0  0  0  0
 42 72  1  0  0  0  0
 43 44  2  0  0  0  0
 43 73  1  0  0  0  0
 44 45  1  0  0  0  0
M  END
$$$$
