56M
 OpenBabel04161909493D

 52 53  0  0  1  0  0  0  0  0999 V2000
    2.6735   56.4576   23.0235 C   0  0  0  0  0  0  0  0  0  0  0  0
    2.2758   55.4901   22.1092 C   0  0  0  0  0  0  0  0  0  0  0  0
    1.3981   54.5047   22.5441 C   0  0  0  0  0  0  0  0  0  0  0  0
    0.9143   54.4739   23.8361 C   0  0  0  0  0  0  0  0  0  0  0  0
    1.3236   55.4446   24.7261 C   0  0  0  0  0  0  0  0  0  0  0  0
    2.2148   56.4676   24.3696 C   0  0  0  0  0  0  0  0  0  0  0  0
    5.6103   61.1226   21.2147 C   0  0  2  0  0  0  0  0  0  0  0  0
    4.6511   60.2386   21.8544 C   0  0  2  0  0  0  0  0  0  0  0  0
    4.8841   58.9527   21.3390 C   0  0  1  0  0  0  0  0  0  0  0  0
    6.3897   60.3371   20.3669 C   0  0  2  0  0  0  0  0  0  0  0  0
    5.7841   62.5779   21.3854 C   0  0  0  0  0  0  0  0  0  0  0  0
    4.2201   57.6828   21.5265 C   0  0  0  0  0  0  0  0  0  0  0  0
    7.5224   60.7102   19.4765 C   0  0  0  0  0  0  0  0  0  0  0  0
    4.6789   63.3916   22.0134 C   0  0  0  0  0  0  0  0  0  0  0  0
    3.1349   51.0379   19.7280 C   0  0  0  0  0  0  0  0  0  0  0  0
    2.1173   50.8396   23.4856 C   0  0  0  0  0  0  0  0  0  0  0  0
    3.5822   60.6143   22.8355 C   0  0  0  0  0  0  0  0  0  0  0  0
    3.0606   52.1948   20.7007 C   0  0  0  0  0  0  0  0  0  0  0  0
    1.4384   50.8883   22.1498 C   0  0  0  0  0  0  0  0  0  0  0  0
    5.9266   59.0468   20.4416 N   0  3  0  0  0  0  0  0  0  0  0  0
    3.5283   57.5217   22.6850 N   0  0  0  0  0  0  0  0  0  0  0  0
    1.7989   52.0973   21.4293 N   0  0  0  0  0  0  0  0  0  0  0  0
    6.7997   63.1541   21.0022 O   0  0  0  0  0  0  0  0  0  0  0  0
    4.3504   56.8025   20.6721 O   0  0  0  0  0  0  0  0  0  0  0  0
    0.7422   53.9417   20.1053 O   0  0  0  0  0  0  0  0  0  0  0  0
   -0.5293   52.8891   21.9719 O   0  0  0  0  0  0  0  0  0  0  0  0
    2.5647   57.3675   25.2041 O   0  0  0  0  0  0  0  0  0  0  0  0
    0.7384   53.3578   21.4467 S   0  0  0  0  0  0  0  0  0  0  0  0
    2.6146   55.5013   21.0789 H   0  0  0  0  0  0  0  0  0  0  0  0
    0.2091   53.7060   24.1436 H   0  0  0  0  0  0  0  0  0  0  0  0
    0.9460   55.4153   25.7448 H   0  0  0  0  0  0  0  0  0  0  0  0
    7.9202   59.8556   18.9179 H   0  0  0  0  0  0  0  0  0  0  0  0
    8.3408   61.1320   20.0705 H   0  0  0  0  0  0  0  0  0  0  0  0
    7.1998   61.4651   18.7500 H   0  0  0  0  0  0  0  0  0  0  0  0
    4.9473   64.4474   22.0572 H   0  0  0  0  0  0  0  0  0  0  0  0
    4.5422   63.1097   23.0553 H   0  0  0  0  0  0  0  0  0  0  0  0
    3.7578   63.2777   21.4310 H   0  0  0  0  0  0  0  0  0  0  0  0
    4.0625   51.0664   19.1606 H   0  0  0  0  0  0  0  0  0  0  0  0
    2.2785   51.0633   19.0444 H   0  0  0  0  0  0  0  0  0  0  0  0
    3.1126   50.0868   20.2648 H   0  0  0  0  0  0  0  0  0  0  0  0
    1.8353   49.9174   23.9983 H   0  0  0  0  0  0  0  0  0  0  0  0
    1.8168   51.6914   24.0997 H   0  0  0  0  0  0  0  0  0  0  0  0
    3.2021   50.8619   23.3591 H   0  0  0  0  0  0  0  0  0  0  0  0
    3.5675   61.6587   23.0950 H   0  0  0  0  0  0  0  0  0  0  0  0
    3.7251   60.1185   23.7949 H   0  0  0  0  0  0  0  0  0  0  0  0
    2.5785   60.4298   22.4473 H   0  0  0  0  0  0  0  0  0  0  0  0
    3.1191   53.1317   20.1328 H   0  0  0  0  0  0  0  0  0  0  0  0
    3.9055   52.1782   21.3944 H   0  0  0  0  0  0  0  0  0  0  0  0
    0.3559   50.8314   22.2827 H   0  0  0  0  0  0  0  0  0  0  0  0
    1.6880   50.0090   21.5618 H   0  0  0  0  0  0  0  0  0  0  0  0
    6.2826   58.2411   19.9163 H   0  0  0  0  0  0  0  0  0  0  0  0
    3.6548   58.1567   23.4691 H   0  0  0  0  0  0  0  0  0  0  0  0
  1  2  2  0  0  0  0
  1  6  1  0  0  0  0
  1 21  1  0  0  0  0
  2  3  1  0  0  0  0
  2 29  1  0  0  0  0
  3  4  2  0  0  0  0
  3 28  1  0  0  0  0
  4  5  1  0  0  0  0
  4 30  1  0  0  0  0
  5  6  2  0  0  0  0
  5 31  1  0  0  0  0
  6 27  1  0  0  0  0
  7  8  1  0  0  0  0
  7 10  1  0  0  0  0
  7 11  1  1  0  0  0
  8  9  1  0  0  0  0
  8 17  1  6  0  0  0
  9 12  1  6  0  0  0
  9 20  1  0  0  0  0
 10 13  1  6  0  0  0
 10 20  1  0  0  0  0
 11 14  1  0  0  0  0
 11 23  2  0  0  0  0
 12 21  1  0  0  0  0
 12 24  2  0  0  0  0
 13 32  1  0  0  0  0
 13 33  1  0  0  0  0
 13 34  1  0  0  0  0
 14 35  1  0  0  0  0
 14 36  1  0  0  0  0
 14 37  1  0  0  0  0
 15 18  1  0  0  0  0
 15 38  1  0  0  0  0
 15 39  1  0  0  0  0
 15 40  1  0  0  0  0
 16 19  1  0  0  0  0
 16 41  1  0  0  0  0
 16 42  1  0  0  0  0
 16 43  1  0  0  0  0
 17 44  1  0  0  0  0
 17 45  1  0  0  0  0
 17 46  1  0  0  0  0
 18 22  1  0  0  0  0
 18 47  1  0  0  0  0
 18 48  1  0  0  0  0
 19 22  1  0  0  0  0
 19 49  1  0  0  0  0
 19 50  1  0  0  0  0
 20 51  1  0  0  0  0
 21 52  1  0  0  0  0
 22 28  1  0  0  0  0
 25 28  2  0  0  0  0
 26 28  2  0  0  0  0
M  CHG  1  20   1
M  END
$$$$
