56N
 OpenBabel04161909493D

 34 35  0  0  1  0  0  0  0  0999 V2000
    2.0328  -16.8399  -51.2279 O   0  0  0  0  0  0  0  0  0  0  0  0
    2.3621  -18.5736  -48.9295 O   0  0  0  0  0  0  0  0  0  0  0  0
    0.5317  -17.4423  -47.2981 O   0  0  0  0  0  0  0  0  0  0  0  0
   -1.2354  -16.5401  -49.5323 O   0  0  0  0  0  0  0  0  0  0  0  0
   -0.3120  -16.5640  -50.6234 C   0  0  2  0  0  0  0  0  0  0  0  0
    1.1131  -16.8478  -50.1278 C   0  0  1  0  0  0  0  0  0  0  0  0
    1.0828  -18.2409  -49.4747 C   0  0  2  0  0  0  0  0  0  0  0  0
    0.0348  -18.2857  -48.3542 C   0  0  2  0  0  0  0  0  0  0  0  0
   -1.3354  -17.8110  -48.8714 C   0  0  1  0  0  0  0  0  0  0  0  0
   -2.3409  -17.6427  -47.7298 C   0  0  0  0  0  0  0  0  0  0  0  0
   -3.6234  -17.3059  -48.2507 O   0  0  0  0  0  0  0  0  0  0  0  0
   -0.3369  -15.3155  -51.3172 O   0  0  0  0  0  0  0  0  0  0  0  0
   -1.3609  -15.1509  -52.2073 C   0  0  0  0  0  0  0  0  0  0  0  0
   -2.2782  -16.1435  -52.5705 C   0  0  0  0  0  0  0  0  0  0  0  0
   -3.2576  -15.8923  -53.5218 C   0  0  0  0  0  0  0  0  0  0  0  0
   -3.3525  -14.6321  -54.1028 C   0  0  0  0  0  0  0  0  0  0  0  0
   -2.4586  -13.6287  -53.7338 C   0  0  0  0  0  0  0  0  0  0  0  0
   -1.4622  -13.8876  -52.7909 C   0  0  0  0  0  0  0  0  0  0  0  0
    1.9684  -15.9531  -51.6301 H   0  0  0  0  0  0  0  0  0  0  0  0
    2.5247  -17.9059  -48.2340 H   0  0  0  0  0  0  0  0  0  0  0  0
   -0.0555  -17.5274  -46.5273 H   0  0  0  0  0  0  0  0  0  0  0  0
   -0.5406  -17.3810  -51.3156 H   0  0  0  0  0  0  0  0  0  0  0  0
    1.4438  -16.0854  -49.4174 H   0  0  0  0  0  0  0  0  0  0  0  0
    0.8541  -19.0025  -50.2334 H   0  0  0  0  0  0  0  0  0  0  0  0
   -0.0378  -19.3030  -47.9510 H   0  0  0  0  0  0  0  0  0  0  0  0
   -1.7386  -18.5263  -49.6003 H   0  0  0  0  0  0  0  0  0  0  0  0
   -2.0505  -16.8343  -47.0513 H   0  0  0  0  0  0  0  0  0  0  0  0
   -2.4358  -18.5702  -47.1564 H   0  0  0  0  0  0  0  0  0  0  0  0
   -3.4929  -16.4804  -48.7593 H   0  0  0  0  0  0  0  0  0  0  0  0
   -2.2633  -17.1459  -52.1581 H   0  0  0  0  0  0  0  0  0  0  0  0
   -3.9498  -16.6825  -53.8034 H   0  0  0  0  0  0  0  0  0  0  0  0
   -4.1264  -14.4330  -54.8367 H   0  0  0  0  0  0  0  0  0  0  0  0
   -2.5430  -12.6416  -54.1832 H   0  0  0  0  0  0  0  0  0  0  0  0
   -0.7698  -13.0966  -52.5124 H   0  0  0  0  0  0  0  0  0  0  0  0
  1  6  1  0  0  0  0
  1 19  1  0  0  0  0
  2  7  1  0  0  0  0
  2 20  1  0  0  0  0
  3  8  1  0  0  0  0
  3 21  1  0  0  0  0
  4  5  1  0  0  0  0
  4  9  1  0  0  0  0
  5  6  1  0  0  0  0
  5 12  1  0  0  0  0
  5 22  1  6  0  0  0
  6  7  1  0  0  0  0
  6 23  1  1  0  0  0
  7  8  1  0  0  0  0
  7 24  1  6  0  0  0
  8  9  1  0  0  0  0
  8 25  1  1  0  0  0
  9 10  1  0  0  0  0
  9 26  1  6  0  0  0
 10 11  1  0  0  0  0
 10 27  1  0  0  0  0
 10 28  1  0  0  0  0
 11 29  1  0  0  0  0
 12 13  1  0  0  0  0
 13 14  2  0  0  0  0
 13 18  1  0  0  0  0
 14 15  1  0  0  0  0
 14 30  1  0  0  0  0
 15 16  2  0  0  0  0
 15 31  1  0  0  0  0
 16 17  1  0  0  0  0
 16 32  1  0  0  0  0
 17 18  2  0  0  0  0
 17 33  1  0  0  0  0
 18 34  1  0  0  0  0
M  END
$$$$
