56O
 OpenBabel04161909503D

 76 78  0  0  1  0  0  0  0  0999 V2000
    1.2722   23.7427    5.4030 C   0  0  0  0  0  0  0  0  0  0  0  0
    2.6062   23.8602    5.0781 C   0  0  0  0  0  0  0  0  0  0  0  0
    5.5839   24.2451    4.5503 C   0  0  0  0  0  0  0  0  0  0  0  0
    1.8334   22.3564    7.2909 C   0  0  0  0  0  0  0  0  0  0  0  0
    3.5962   23.2212    5.8562 C   0  0  0  0  0  0  0  0  0  0  0  0
   10.5897   28.8139   12.1964 O   0  0  0  0  0  0  0  0  0  0  0  0
   10.0401   29.9153   11.9128 C   0  0  0  0  0  0  0  0  0  0  0  0
   10.4214   31.0920   12.1631 O   0  0  0  0  0  0  0  0  0  0  0  0
    8.7195   29.8042   11.1540 C   0  0  0  0  0  0  0  0  0  0  0  0
    8.9091   30.3672    9.7540 C   0  0  0  0  0  0  0  0  0  0  0  0
    7.8401   29.8326    8.8130 C   0  0  1  0  0  0  0  0  0  0  0  0
    6.6513   30.7932    8.7223 C   0  0  0  0  0  0  0  0  0  0  0  0
    6.8792   31.9377    8.0050 N   0  0  0  0  0  0  0  0  0  0  0  0
    5.5937   30.6144    9.3240 O   0  0  0  0  0  0  0  0  0  0  0  0
    8.3912   29.7231    7.4719 N   0  0  0  0  0  0  0  0  0  0  0  0
    7.6347   29.1894    6.4518 C   0  0  0  0  0  0  0  0  0  0  0  0
    6.4519   28.8917    6.5627 O   0  0  0  0  0  0  0  0  0  0  0  0
    8.4103   29.1411    5.1405 C   0  0  2  0  0  0  0  0  0  0  0  0
    8.3259   30.4652    4.4030 C   0  0  0  0  0  0  0  0  0  0  0  0
    9.3914   30.5286    3.3137 C   0  0  0  0  0  0  0  0  0  0  0  0
    9.0625   31.6281    2.3066 C   0  0  0  0  0  0  0  0  0  0  0  0
    9.7893   32.6567    2.3856 O   0  0  0  0  0  0  0  0  0  0  0  0
    8.1189   31.3648    1.5105 O   0  0  0  0  0  0  0  0  0  0  0  0
    7.9185   28.0666    4.3038 N   0  0  0  0  0  0  0  0  0  0  0  0
    8.5756   26.8823    4.3121 C   0  0  0  0  0  0  0  0  0  0  0  0
    9.6048   26.6670    4.9500 O   0  0  0  0  0  0  0  0  0  0  0  0
    8.0491   25.8971    3.3134 C   0  0  1  0  0  0  0  0  0  0  0  0
    9.0269   26.0815    2.1403 C   0  0  0  0  0  0  0  0  0  0  0  0
    8.6023   25.2230    0.9913 C   0  0  0  0  0  0  0  0  0  0  0  0
    9.3294   24.0805    0.8427 N   0  0  0  0  0  0  0  0  0  0  0  0
    8.9130   23.2076   -0.1852 O   0  0  0  0  0  0  0  0  0  0  0  0
    7.6089   25.5226    0.3087 O   0  0  0  0  0  0  0  0  0  0  0  0
    8.1430   24.4943    3.9049 C   0  0  0  0  0  0  0  0  0  0  0  0
    6.9330   23.9977    4.5991 C   0  0  0  0  0  0  0  0  0  0  0  0
    7.1491   23.0000    5.4946 O   0  0  0  0  0  0  0  0  0  0  0  0
    5.9564   22.6020    6.0604 N   0  0  0  0  0  0  0  0  0  0  0  0
    5.0005   23.3632    5.4966 C   0  0  0  0  0  0  0  0  0  0  0  0
    3.1872   22.4654    6.9571 C   0  0  0  0  0  0  0  0  0  0  0  0
    0.8622   23.0020    6.5116 C   0  0  0  0  0  0  0  0  0  0  0  0
   -0.5591   22.9328    6.8193 C   0  0  0  0  0  0  0  0  0  0  0  0
   -1.1532   21.7342    7.2140 C   0  0  0  0  0  0  0  0  0  0  0  0
   -1.3603   24.0775    6.6691 C   0  0  0  0  0  0  0  0  0  0  0  0
   -2.7293   24.0318    6.9210 C   0  0  0  0  0  0  0  0  0  0  0  0
   -3.3013   22.8348    7.3204 C   0  0  0  0  0  0  0  0  0  0  0  0
   -2.5167   21.6912    7.4638 C   0  0  0  0  0  0  0  0  0  0  0  0
   -3.2325   20.2109    7.9549 Cl  0  0  0  0  0  0  0  0  0  0  0  0
    0.5257   24.2546    4.7850 H   0  0  0  0  0  0  0  0  0  0  0  0
    2.8789   24.4513    4.2142 H   0  0  0  0  0  0  0  0  0  0  0  0
    5.0813   24.9728    3.9277 H   0  0  0  0  0  0  0  0  0  0  0  0
    1.5457   21.7751    8.1632 H   0  0  0  0  0  0  0  0  0  0  0  0
    7.9338   30.3615   11.6734 H   0  0  0  0  0  0  0  0  0  0  0  0
    8.4105   28.7542   11.0992 H   0  0  0  0  0  0  0  0  0  0  0  0
    9.9000   30.0816    9.3785 H   0  0  0  0  0  0  0  0  0  0  0  0
    8.8745   31.4637    9.7897 H   0  0  0  0  0  0  0  0  0  0  0  0
    7.4574   28.8576    9.1221 H   0  0  0  0  0  0  0  0  0  0  0  0
    6.1251   32.5984    7.8974 H   0  0  0  0  0  0  0  0  0  0  0  0
    7.7488   32.0672    7.5051 H   0  0  0  0  0  0  0  0  0  0  0  0
    9.3777   29.9092    7.3204 H   0  0  0  0  0  0  0  0  0  0  0  0
    9.4509   28.9347    5.4070 H   0  0  0  0  0  0  0  0  0  0  0  0
    8.4753   31.2910    5.1079 H   0  0  0  0  0  0  0  0  0  0  0  0
    7.3261   30.5739    3.9672 H   0  0  0  0  0  0  0  0  0  0  0  0
    9.4490   29.5708    2.7862 H   0  0  0  0  0  0  0  0  0  0  0  0
   10.3683   30.7114    3.7746 H   0  0  0  0  0  0  0  0  0  0  0  0
    7.0827   28.2146    3.7569 H   0  0  0  0  0  0  0  0  0  0  0  0
    7.0345   26.1466    3.0138 H   0  0  0  0  0  0  0  0  0  0  0  0
   10.0487   25.8308    2.4418 H   0  0  0  0  0  0  0  0  0  0  0  0
    9.0347   27.1239    1.7992 H   0  0  0  0  0  0  0  0  0  0  0  0
   10.1048   23.8337    1.4526 H   0  0  0  0  0  0  0  0  0  0  0  0
    9.5296   22.4606   -0.1449 H   0  0  0  0  0  0  0  0  0  0  0  0
    8.9754   24.4353    4.6094 H   0  0  0  0  0  0  0  0  0  0  0  0
    8.3474   23.7821    3.1054 H   0  0  0  0  0  0  0  0  0  0  0  0
    3.9301   21.9650    7.5735 H   0  0  0  0  0  0  0  0  0  0  0  0
   -0.5491   20.8356    7.3116 H   0  0  0  0  0  0  0  0  0  0  0  0
   -0.9098   25.0167    6.3539 H   0  0  0  0  0  0  0  0  0  0  0  0
   -3.3210   24.9293    6.8053 H   0  0  0  0  0  0  0  0  0  0  0  0
   -4.3673   22.7950    7.5224 H   0  0  0  0  0  0  0  0  0  0  0  0
  1  2  2  0  0  0  0
  1 39  1  0  0  0  0
  1 47  1  0  0  0  0
  2  5  1  0  0  0  0
  2 48  1  0  0  0  0
  3 34  2  0  0  0  0
  3 37  1  0  0  0  0
  3 49  1  0  0  0  0
  4 38  1  0  0  0  0
  4 39  2  0  0  0  0
  4 50  1  0  0  0  0
  5 37  1  0  0  0  0
  5 38  2  0  0  0  0
  6  7  2  0  0  0  0
  7  8  1  0  0  0  0
  7  9  1  0  0  0  0
  9 10  1  0  0  0  0
  9 51  1  0  0  0  0
  9 52  1  0  0  0  0
 10 11  1  0  0  0  0
 10 53  1  0  0  0  0
 10 54  1  0  0  0  0
 11 12  1  0  0  0  0
 11 15  1  0  0  0  0
 11 55  1  1  0  0  0
 12 13  1  0  0  0  0
 12 14  2  0  0  0  0
 13 56  1  0  0  0  0
 13 57  1  0  0  0  0
 15 16  1  0  0  0  0
 15 58  1  0  0  0  0
 16 17  2  0  0  0  0
 16 18  1  0  0  0  0
 18 19  1  0  0  0  0
 18 24  1  0  0  0  0
 18 59  1  1  0  0  0
 19 20  1  0  0  0  0
 19 60  1  0  0  0  0
 19 61  1  0  0  0  0
 20 21  1  0  0  0  0
 20 62  1  0  0  0  0
 20 63  1  0  0  0  0
 21 22  2  0  0  0  0
 21 23  1  0  0  0  0
 24 25  1  0  0  0  0
 24 64  1  0  0  0  0
 25 26  2  0  0  0  0
 25 27  1  0  0  0  0
 27 28  1  0  0  0  0
 27 33  1  0  0  0  0
 27 65  1  6  0  0  0
 28 29  1  0  0  0  0
 28 66  1  0  0  0  0
 28 67  1  0  0  0  0
 29 30  1  0  0  0  0
 29 32  2  0  0  0  0
 30 31  1  0  0  0  0
 30 68  1  0  0  0  0
 31 69  1  0  0  0  0
 33 34  1  0  0  0  0
 33 70  1  0  0  0  0
 33 71  1  0  0  0  0
 34 35  1  0  0  0  0
 35 36  1  0  0  0  0
 36 37  2  0  0  0  0
 38 72  1  0  0  0  0
 39 40  1  0  0  0  0
 40 41  2  0  0  0  0
 40 42  1  0  0  0  0
 41 45  1  0  0  0  0
 41 73  1  0  0  0  0
 42 43  2  0  0  0  0
 42 74  1  0  0  0  0
 43 44  1  0  0  0  0
 43 75  1  0  0  0  0
 44 45  2  0  0  0  0
 44 76  1  0  0  0  0
 45 46  1  0  0  0  0
M  END
$$$$
