57E
 OpenBabel04161909513D

 48 50  0  0  1  0  0  0  0  0999 V2000
  -10.9945    7.6035   -1.9286 C   0  0  0  0  0  0  0  0  0  0  0  0
  -10.6385    8.0648   -0.5193 C   0  0  0  0  0  0  0  0  0  0  0  0
  -10.5076    6.8969    0.4297 C   0  0  2  0  0  0  0  0  0  0  0  0
  -11.5858    6.0367    0.8654 C   0  0  2  0  0  0  0  0  0  0  0  0
  -11.0198    5.0963    1.7302 C   0  0  2  0  0  0  0  0  0  0  0  0
   -9.3561    6.4433    1.0595 C   0  0  1  0  0  0  0  0  0  0  0  0
   -6.2884    8.4785    0.2067 C   0  0  1  0  0  0  0  0  0  0  0  0
   -5.7364    9.0257    1.3785 C   0  0  0  0  0  0  0  0  0  0  0  0
   -4.6914    9.9393    1.2560 C   0  0  1  0  0  0  0  0  0  0  0  0
   -4.2261   10.3343    0.0085 C   0  0  0  0  0  0  0  0  0  0  0  0
   -4.8138    9.8227   -1.1547 C   0  0  0  0  0  0  0  0  0  0  0  0
   -6.6546    8.1980   -2.0092 C   0  0  0  0  0  0  0  0  0  0  0  0
   -3.5305    8.2316    3.8933 C   0  0  0  0  0  0  0  0  0  0  0  0
  -11.6482    3.9678    2.4688 C   0  0  0  0  0  0  0  0  0  0  0  0
  -13.0149    6.0547    0.5241 C   0  0  0  0  0  0  0  0  0  0  0  0
  -13.6594    5.0058    0.4546 O   0  0  0  0  0  0  0  0  0  0  0  0
   -7.9927    6.9458    1.1282 C   0  0  0  0  0  0  0  0  0  0  0  0
  -13.7150    7.3691    0.3134 C   0  0  0  0  0  0  0  0  0  0  0  0
   -9.6939    5.3772    1.8697 N   0  3  0  0  0  0  0  0  0  0  0  0
   -7.3006    7.5438    0.0435 N   0  3  0  0  0  0  0  0  0  0  0  0
   -7.3873    6.8608    2.1868 O   0  0  0  0  0  0  0  0  0  0  0  0
   -7.4434    7.3042   -1.3135 C   0  0  0  0  0  0  0  0  0  0  0  0
   -5.8660    8.8881   -1.0579 C   0  0  1  0  0  0  0  0  0  0  0  0
   -3.9919   10.6369    2.7283 S   0  0  0  0  0  0  0  0  0  0  0  0
   -5.0557   10.8179    3.6912 O   0  0  0  0  0  0  0  0  0  0  0  0
   -3.1266   11.7259    2.3334 O   0  0  0  0  0  0  0  0  0  0  0  0
   -2.9881    9.4151    3.2564 N   0  0  0  0  0  0  0  0  0  0  0  0
  -11.0802    8.4551   -2.6100 H   0  0  0  0  0  0  0  0  0  0  0  0
  -11.9449    7.0628   -1.9514 H   0  0  0  0  0  0  0  0  0  0  0  0
  -10.2366    6.9201   -2.3180 H   0  0  0  0  0  0  0  0  0  0  0  0
  -11.3935    8.7726   -0.1581 H   0  0  0  0  0  0  0  0  0  0  0  0
   -9.7176    8.6511   -0.5600 H   0  0  0  0  0  0  0  0  0  0  0  0
   -6.0879    8.7327    2.3648 H   0  0  0  0  0  0  0  0  0  0  0  0
   -3.4081   11.0457   -0.0707 H   0  0  0  0  0  0  0  0  0  0  0  0
   -4.4433   10.1329   -2.1270 H   0  0  0  0  0  0  0  0  0  0  0  0
   -6.5854    8.3048   -3.0862 H   0  0  0  0  0  0  0  0  0  0  0  0
   -2.7075    7.6030    4.2442 H   0  0  0  0  0  0  0  0  0  0  0  0
   -4.1182    7.6431    3.1865 H   0  0  0  0  0  0  0  0  0  0  0  0
   -4.1482    8.4966    4.7548 H   0  0  0  0  0  0  0  0  0  0  0  0
  -10.9250    3.4410    3.1082 H   0  0  0  0  0  0  0  0  0  0  0  0
  -12.0608    3.2400    1.7668 H   0  0  0  0  0  0  0  0  0  0  0  0
  -12.4526    4.3338    3.1106 H   0  0  0  0  0  0  0  0  0  0  0  0
  -14.7671    7.1852    0.0775 H   0  0  0  0  0  0  0  0  0  0  0  0
  -13.3066    7.9257   -0.5269 H   0  0  0  0  0  0  0  0  0  0  0  0
  -13.6571    7.9686    1.2246 H   0  0  0  0  0  0  0  0  0  0  0  0
   -9.0403    4.9034    2.4809 H   0  0  0  0  0  0  0  0  0  0  0  0
   -8.0753    6.5016   -1.6808 H   0  0  0  0  0  0  0  0  0  0  0  0
   -1.9880    9.5933    3.2244 H   0  0  0  0  0  0  0  0  0  0  0  0
  1  2  1  0  0  0  0
  1 28  1  0  0  0  0
  1 29  1  0  0  0  0
  1 30  1  0  0  0  0
  2 31  1  0  0  0  0
  2 32  1  0  0  0  0
  3  2  1  1  0  0  0
  3  4  1  0  0  0  0
  3  6  1  0  0  0  0
  4  5  1  0  0  0  0
  4 15  1  6  0  0  0
  5 14  1  1  0  0  0
  5 19  1  0  0  0  0
  6 17  1  1  0  0  0
  6 19  1  0  0  0  0
  7  8  1  1  0  0  0
  7 20  1  0  0  0  0
  7 23  1  0  0  0  0
  8  9  1  0  0  0  0
  8 33  1  0  0  0  0
  9 10  1  0  0  0  0
  9 24  1  6  0  0  0
 10 11  1  0  0  0  0
 10 34  1  0  0  0  0
 11 35  1  0  0  0  0
 12 22  1  0  0  0  0
 12 23  1  0  0  0  0
 12 36  1  0  0  0  0
 13 27  1  0  0  0  0
 13 37  1  0  0  0  0
 13 38  1  0  0  0  0
 13 39  1  0  0  0  0
 14 40  1  0  0  0  0
 14 41  1  0  0  0  0
 14 42  1  0  0  0  0
 15 16  2  0  0  0  0
 15 18  1  0  0  0  0
 17 20  1  0  0  0  0
 17 21  2  0  0  0  0
 18 43  1  0  0  0  0
 18 44  1  0  0  0  0
 18 45  1  0  0  0  0
 19 46  1  0  0  0  0
 20 22  1  0  0  0  0
 22 47  1  0  0  0  0
 23 11  1  6  0  0  0
 24 25  2  0  0  0  0
 24 26  2  0  0  0  0
 24 27  1  0  0  0  0
 27 48  1  0  0  0  0
M  CHG  2  19   1  20   1
M  END
$$$$
