59T
 OpenBabel04161909523D

 61 65  0  0  1  0  0  0  0  0999 V2000
   22.3857  -16.2535    8.2548 N   0  0  0  0  0  0  0  0  0  0  0  0
   22.7706  -16.3160    9.5548 C   0  0  0  0  0  0  0  0  0  0  0  0
   24.0976  -16.4647    9.9174 C   0  0  0  0  0  0  0  0  0  0  0  0
   25.0570  -16.5445    8.9201 C   0  0  0  0  0  0  0  0  0  0  0  0
   24.6753  -16.4718    7.5861 C   0  0  0  0  0  0  0  0  0  0  0  0
   21.6893  -16.2467   10.5462 C   0  0  0  0  0  0  0  0  0  0  0  0
   19.5217  -17.0486   11.3261 C   0  0  0  0  0  0  0  0  0  0  0  0
   21.7465  -15.3945   11.6594 C   0  0  0  0  0  0  0  0  0  0  0  0
   17.2648  -15.3905   13.0359 C   0  0  0  0  0  0  0  0  0  0  0  0
   15.3807  -16.2055   17.2487 C   0  0  0  0  0  0  0  0  0  0  0  0
   17.4580  -17.1099   16.8317 C   0  0  0  0  0  0  0  0  0  0  0  0
   18.5663  -16.7150   14.6456 C   0  0  0  0  0  0  0  0  0  0  0  0
   13.2043  -15.2098   17.5593 C   0  0  0  0  0  0  0  0  0  0  0  0
   15.4626  -12.9759   13.4075 C   0  0  1  0  0  0  0  0  0  0  0  0
   22.8745  -16.2404    5.8669 C   0  0  0  0  0  0  0  0  0  0  0  0
   23.3346  -16.3253    7.2899 C   0  0  0  0  0  0  0  0  0  0  0  0
   20.5620  -17.0684   10.3980 C   0  0  0  0  0  0  0  0  0  0  0  0
   19.5896  -16.2090   12.4427 C   0  0  0  0  0  0  0  0  0  0  0  0
   20.7035  -15.3729   12.5925 C   0  0  0  0  0  0  0  0  0  0  0  0
   18.4934  -16.1387   13.4302 C   0  0  0  0  0  0  0  0  0  0  0  0
   17.2008  -14.8801   11.8975 O   0  0  0  0  0  0  0  0  0  0  0  0
   16.2568  -15.2427   13.9431 N   0  3  0  0  0  0  0  0  0  0  0  0
   16.3384  -15.8222   15.2216 C   0  0  0  0  0  0  0  0  0  0  0  0
   15.3191  -15.6441   16.0421 N   0  0  0  0  0  0  0  0  0  0  0  0
   16.4258  -16.9347   17.6838 N   0  0  0  0  0  0  0  0  0  0  0  0
   17.4589  -16.5590   15.5700 C   0  0  0  0  0  0  0  0  0  0  0  0
   14.3033  -15.9942   18.0718 N   0  0  0  0  0  0  0  0  0  0  0  0
   15.0726  -14.4562   13.5734 C   0  0  0  0  0  0  0  0  0  0  0  0
   14.3267  -12.1740   13.0669 O   0  0  0  0  0  0  0  0  0  0  0  0
   14.6881  -10.8205   12.8267 C   0  0  0  0  0  0  0  0  0  0  0  0
   15.3686  -10.2412   14.0601 C   0  0  1  0  0  0  0  0  0  0  0  0
   16.5210  -11.1560   14.4636 C   0  0  0  0  0  0  0  0  0  0  0  0
   16.0441  -12.4822   14.6266 O   0  0  0  0  0  0  0  0  0  0  0  0
   15.8839   -8.8982   13.7416 N   0  3  0  0  0  0  0  0  0  0  0  0
   18.1720  -18.0955   11.0705 Cl  0  0  0  0  0  0  0  0  0  0  0  0
   24.3813  -16.5258   10.9598 H   0  0  0  0  0  0  0  0  0  0  0  0
   26.1060  -16.6646    9.1748 H   0  0  0  0  0  0  0  0  0  0  0  0
   25.4082  -16.5284    6.7904 H   0  0  0  0  0  0  0  0  0  0  0  0
   22.6049  -14.7400   11.8021 H   0  0  0  0  0  0  0  0  0  0  0  0
   18.2996  -17.7097   17.1976 H   0  0  0  0  0  0  0  0  0  0  0  0
   19.4278  -17.2833   14.9585 H   0  0  0  0  0  0  0  0  0  0  0  0
   12.4145  -15.1227   18.3140 H   0  0  0  0  0  0  0  0  0  0  0  0
   12.7755  -15.6783   16.6611 H   0  0  0  0  0  0  0  0  0  0  0  0
   13.5431  -14.1962   17.2956 H   0  0  0  0  0  0  0  0  0  0  0  0
   16.2062  -12.9043   12.6079 H   0  0  0  0  0  0  0  0  0  0  0  0
   23.7362  -16.3104    5.1937 H   0  0  0  0  0  0  0  0  0  0  0  0
   22.3664  -15.2850    5.6954 H   0  0  0  0  0  0  0  0  0  0  0  0
   22.1845  -17.0626    5.6484 H   0  0  0  0  0  0  0  0  0  0  0  0
   20.5084  -17.7363    9.5415 H   0  0  0  0  0  0  0  0  0  0  0  0
   20.7665  -14.6967   13.4388 H   0  0  0  0  0  0  0  0  0  0  0  0
   14.2948  -16.3912   18.9975 H   0  0  0  0  0  0  0  0  0  0  0  0
   14.6664  -14.8402   12.6191 H   0  0  0  0  0  0  0  0  0  0  0  0
   14.2883  -14.5606   14.3308 H   0  0  0  0  0  0  0  0  0  0  0  0
   13.7814  -10.2423   12.5963 H   0  0  0  0  0  0  0  0  0  0  0  0
   15.3622  -10.7610   11.9587 H   0  0  0  0  0  0  0  0  0  0  0  0
   14.6508  -10.1498   14.8819 H   0  0  0  0  0  0  0  0  0  0  0  0
   16.9581  -10.8117   15.4103 H   0  0  0  0  0  0  0  0  0  0  0  0
   17.3066  -11.1400   13.6940 H   0  0  0  0  0  0  0  0  0  0  0  0
   16.3476   -8.4861   14.5575 H   0  0  0  0  0  0  0  0  0  0  0  0
   16.5630   -8.9468   12.9715 H   0  0  0  0  0  0  0  0  0  0  0  0
   15.1181   -8.2769   13.4558 H   0  0  0  0  0  0  0  0  0  0  0  0
  1  2  2  0  0  0  0
  1 16  1  0  0  0  0
  2  3  1  0  0  0  0
  2  6  1  0  0  0  0
  3  4  2  0  0  0  0
  3 36  1  0  0  0  0
  4  5  1  0  0  0  0
  4 37  1  0  0  0  0
  5 16  2  0  0  0  0
  5 38  1  0  0  0  0
  6  8  2  0  0  0  0
  6 17  1  0  0  0  0
  7 17  2  0  0  0  0
  7 18  1  0  0  0  0
  7 35  1  0  0  0  0
  8 19  1  0  0  0  0
  8 39  1  0  0  0  0
  9 20  1  0  0  0  0
  9 21  2  0  0  0  0
  9 22  1  0  0  0  0
 10 24  2  0  0  0  0
 10 25  1  0  0  0  0
 10 27  1  0  0  0  0
 11 25  2  0  0  0  0
 11 26  1  0  0  0  0
 11 40  1  0  0  0  0
 12 20  2  0  0  0  0
 12 26  1  0  0  0  0
 12 41  1  0  0  0  0
 13 27  1  0  0  0  0
 13 42  1  0  0  0  0
 13 43  1  0  0  0  0
 13 44  1  0  0  0  0
 14 28  1  0  0  0  0
 14 29  1  0  0  0  0
 14 33  1  0  0  0  0
 14 45  1  6  0  0  0
 15 16  1  0  0  0  0
 15 46  1  0  0  0  0
 15 47  1  0  0  0  0
 15 48  1  0  0  0  0
 17 49  1  0  0  0  0
 18 19  2  0  0  0  0
 18 20  1  0  0  0  0
 19 50  1  0  0  0  0
 22 23  1  0  0  0  0
 22 28  1  0  0  0  0
 23 24  1  0  0  0  0
 23 26  2  0  0  0  0
 27 51  1  0  0  0  0
 28 52  1  0  0  0  0
 28 53  1  0  0  0  0
 29 30  1  0  0  0  0
 30 31  1  0  0  0  0
 30 54  1  0  0  0  0
 30 55  1  0  0  0  0
 31 32  1  0  0  0  0
 31 34  1  0  0  0  0
 31 56  1  1  0  0  0
 32 33  1  0  0  0  0
 32 57  1  0  0  0  0
 32 58  1  0  0  0  0
 34 59  1  0  0  0  0
 34 60  1  0  0  0  0
 34 61  1  0  0  0  0
M  CHG  2  22   1  34   1
M  END
$$$$
