59U
 OpenBabel04161909523D

 72 76  0  0  1  0  0  0  0  0999 V2000
   10.4502   34.9316  -12.9467 C   0  0  0  0  0  0  0  0  0  0  0  0
    7.7610   34.8948  -12.0319 C   0  0  0  0  0  0  0  0  0  0  0  0
    9.6542   36.0982  -12.9587 C   0  0  0  0  0  0  0  0  0  0  0  0
    6.1059   34.2233  -10.3182 C   0  0  0  0  0  0  0  0  0  0  0  0
    3.0147   35.7481  -12.6514 C   0  0  0  0  0  0  0  0  0  0  0  0
   18.4989   33.8420  -15.7175 C   0  0  0  0  0  0  0  0  0  0  0  0
   17.7921   34.0041  -17.0590 C   0  0  0  0  0  0  0  0  0  0  0  0
   19.5721   34.2956  -18.7651 C   0  0  0  0  0  0  0  0  0  0  0  0
   17.9103   32.9939  -20.6397 C   0  0  0  0  0  0  0  0  0  0  0  0
   18.1199   34.8237  -14.7106 N   0  0  0  0  0  0  0  0  0  0  0  0
   16.7821   34.6798  -12.7490 N   0  0  0  0  0  0  0  0  0  0  0  0
   16.9093   34.8067  -14.0922 C   0  0  0  0  0  0  0  0  0  0  0  0
   15.8313   34.9340  -14.9024 N   0  0  0  0  0  0  0  0  0  0  0  0
   14.5754   34.9440  -14.3967 C   0  0  0  0  0  0  0  0  0  0  0  0
   14.3653   34.7927  -13.0237 C   0  0  0  0  0  0  0  0  0  0  0  0
   15.5124   34.6613  -12.2353 C   0  0  0  0  0  0  0  0  0  0  0  0
   13.4406   35.0835  -15.2834 N   0  0  0  0  0  0  0  0  0  0  0  0
   12.1214   35.0648  -14.7862 C   0  0  0  0  0  0  0  0  0  0  0  0
   11.8564   34.9294  -13.4923 C   0  0  0  0  0  0  0  0  0  0  0  0
   12.9599   34.7844  -12.4651 C   0  0  0  0  0  0  0  0  0  0  0  0
   13.7141   35.2320  -16.7066 C   0  0  0  0  0  0  0  0  0  0  0  0
   13.9292   33.8731  -17.3504 C   0  0  0  0  0  0  0  0  0  0  0  0
   11.0779   35.2187  -15.6858 O   0  0  0  0  0  0  0  0  0  0  0  0
    9.8765   33.7502  -12.4581 C   0  0  0  0  0  0  0  0  0  0  0  0
    8.5540   33.7337  -12.0091 C   0  0  0  0  0  0  0  0  0  0  0  0
    8.3320   36.0849  -12.5079 C   0  0  0  0  0  0  0  0  0  0  0  0
   10.3132   37.5957  -13.5386 Cl  0  0  0  0  0  0  0  0  0  0  0  0
    6.3933   34.8402  -11.5359 C   0  0  0  0  0  0  0  0  0  0  0  0
    4.8573   34.0875   -9.8252 N   0  0  0  0  0  0  0  0  0  0  0  0
    3.8867   34.6032  -10.6177 C   0  0  0  0  0  0  0  0  0  0  0  0
    4.1514   35.2137  -11.8388 C   0  0  0  0  0  0  0  0  0  0  0  0
    5.4077   35.3466  -12.3191 N   0  0  0  0  0  0  0  0  0  0  0  0
   18.5911   33.2952  -18.1731 C   0  0  2  0  0  0  0  0  0  0  0  0
   20.1712   33.9586  -20.1116 C   0  0  0  0  0  0  0  0  0  0  0  0
   19.3748   32.9684  -20.8942 N   0  3  2  0  0  0  0  0  0  0  0  0
   17.6626   32.6405  -19.1916 C   0  0  0  0  0  0  0  0  0  0  0  0
   19.7494   32.8626  -22.3536 C   0  0  0  0  0  0  0  0  0  0  0  0
    6.9143   33.8175   -9.7144 H   0  0  0  0  0  0  0  0  0  0  0  0
    2.0649   35.5667  -12.1371 H   0  0  0  0  0  0  0  0  0  0  0  0
    2.9868   35.2495  -13.6218 H   0  0  0  0  0  0  0  0  0  0  0  0
    3.1377   36.8230  -12.7899 H   0  0  0  0  0  0  0  0  0  0  0  0
   19.5805   33.8909  -15.9055 H   0  0  0  0  0  0  0  0  0  0  0  0
   18.2920   32.8325  -15.3424 H   0  0  0  0  0  0  0  0  0  0  0  0
   17.6703   35.0651  -17.3054 H   0  0  0  0  0  0  0  0  0  0  0  0
   16.7963   33.5655  -16.9937 H   0  0  0  0  0  0  0  0  0  0  0  0
   20.4012   34.4222  -18.0575 H   0  0  0  0  0  0  0  0  0  0  0  0
   19.0824   35.2734  -18.8567 H   0  0  0  0  0  0  0  0  0  0  0  0
   17.4601   32.2291  -21.2802 H   0  0  0  0  0  0  0  0  0  0  0  0
   17.5106   33.9820  -20.8756 H   0  0  0  0  0  0  0  0  0  0  0  0
   18.7909   35.5577  -14.4880 H   0  0  0  0  0  0  0  0  0  0  0  0
   15.4557   34.5412  -11.1317 H   0  0  0  0  0  0  0  0  0  0  0  0
   12.8554   35.6148  -11.7501 H   0  0  0  0  0  0  0  0  0  0  0  0
   12.7832   33.8299  -11.9497 H   0  0  0  0  0  0  0  0  0  0  0  0
   14.5809   35.8742  -16.9261 H   0  0  0  0  0  0  0  0  0  0  0  0
   12.8546   35.7002  -17.2254 H   0  0  0  0  0  0  0  0  0  0  0  0
   14.1072   33.9565  -18.4317 H   0  0  0  0  0  0  0  0  0  0  0  0
   13.0620   33.2264  -17.1886 H   0  0  0  0  0  0  0  0  0  0  0  0
   14.7922   33.3846  -16.8969 H   0  0  0  0  0  0  0  0  0  0  0  0
   11.0984   34.4986  -16.3151 H   0  0  0  0  0  0  0  0  0  0  0  0
   10.4556   32.8218  -12.4432 H   0  0  0  0  0  0  0  0  0  0  0  0
    8.1138   32.7954  -11.6536 H   0  0  0  0  0  0  0  0  0  0  0  0
    7.7325   37.0002  -12.5339 H   0  0  0  0  0  0  0  0  0  0  0  0
    2.8678   34.5260  -10.2553 H   0  0  0  0  0  0  0  0  0  0  0  0
   19.1685   32.4848  -17.7083 H   0  0  0  0  0  0  0  0  0  0  0  0
   21.1399   33.4782  -19.9569 H   0  0  0  0  0  0  0  0  0  0  0  0
   20.2815   34.8739  -20.6970 H   0  0  0  0  0  0  0  0  0  0  0  0
   17.7623   31.5516  -19.0750 H   0  0  0  0  0  0  0  0  0  0  0  0
   16.6263   32.9006  -18.9773 H   0  0  0  0  0  0  0  0  0  0  0  0
   19.0767   32.1343  -22.8151 H   0  0  0  0  0  0  0  0  0  0  0  0
   20.7746   32.4841  -22.3907 H   0  0  0  0  0  0  0  0  0  0  0  0
   19.6691   33.8339  -22.8449 H   0  0  0  0  0  0  0  0  0  0  0  0
   19.6719   32.0783  -20.5300 H   0  0  0  0  0  0  0  0  0  0  0  0
  1  3  2  0  0  0  0
  1 19  1  0  0  0  0
  1 24  1  0  0  0  0
  2 25  1  0  0  0  0
  2 26  2  0  0  0  0
  2 28  1  0  0  0  0
  3 26  1  0  0  0  0
  3 27  1  0  0  0  0
  4 28  2  0  0  0  0
  4 29  1  0  0  0  0
  4 38  1  0  0  0  0
  5 31  1  0  0  0  0
  5 39  1  0  0  0  0
  5 40  1  0  0  0  0
  5 41  1  0  0  0  0
  6  7  1  0  0  0  0
  6 10  1  0  0  0  0
  6 42  1  0  0  0  0
  6 43  1  0  0  0  0
  7 33  1  0  0  0  0
  7 44  1  0  0  0  0
  7 45  1  0  0  0  0
  8 33  1  0  0  0  0
  8 34  1  0  0  0  0
  8 46  1  0  0  0  0
  8 47  1  0  0  0  0
  9 35  1  0  0  0  0
  9 36  1  0  0  0  0
  9 48  1  0  0  0  0
  9 49  1  0  0  0  0
 10 12  1  0  0  0  0
 10 50  1  0  0  0  0
 11 12  2  0  0  0  0
 11 16  1  0  0  0  0
 12 13  1  0  0  0  0
 13 14  2  0  0  0  0
 14 15  1  0  0  0  0
 14 17  1  0  0  0  0
 15 16  2  0  0  0  0
 15 20  1  0  0  0  0
 16 51  1  0  0  0  0
 17 18  1  0  0  0  0
 17 21  1  0  0  0  0
 18 19  2  0  0  0  0
 18 23  1  0  0  0  0
 19 20  1  0  0  0  0
 20 52  1  0  0  0  0
 20 53  1  0  0  0  0
 21 22  1  0  0  0  0
 21 54  1  0  0  0  0
 21 55  1  0  0  0  0
 22 56  1  0  0  0  0
 22 57  1  0  0  0  0
 22 58  1  0  0  0  0
 23 59  1  0  0  0  0
 24 25  2  0  0  0  0
 24 60  1  0  0  0  0
 25 61  1  0  0  0  0
 26 62  1  0  0  0  0
 28 32  1  0  0  0  0
 29 30  2  0  0  0  0
 30 31  1  0  0  0  0
 30 63  1  0  0  0  0
 31 32  2  0  0  0  0
 33 36  1  0  0  0  0
 33 64  1  1  0  0  0
 34 35  1  0  0  0  0
 34 65  1  0  0  0  0
 34 66  1  0  0  0  0
 35 37  1  0  0  0  0
 35 72  1  1  0  0  0
 36 67  1  0  0  0  0
 36 68  1  0  0  0  0
 37 69  1  0  0  0  0
 37 70  1  0  0  0  0
 37 71  1  0  0  0  0
M  CHG  1  35   1
M  END
$$$$
