5AY
 OpenBabel04161909533D

 49 53  0  0  1  0  0  0  0  0999 V2000
    4.7639   12.9554   43.9160 C   0  0  0  0  0  0  0  0  0  0  0  0
    4.6368   12.6828   45.2281 C   0  0  0  0  0  0  0  0  0  0  0  0
    3.8744   13.5803   46.0220 N   0  3  0  0  0  0  0  0  0  0  0  0
    7.4183   11.0528   44.7972 C   0  0  0  0  0  0  0  0  0  0  0  0
    3.4914   15.3822   41.5589 C   0  0  0  0  0  0  0  0  0  0  0  0
    3.7429   15.5147   40.0988 C   0  0  1  0  0  0  0  0  0  0  0  0
    2.9439   14.6974   39.1273 C   0  0  0  0  0  0  0  0  0  0  0  0
    2.6815   16.1848   39.2506 C   0  0  2  0  0  0  0  0  0  0  0  0
    3.0761   17.1549   38.1661 C   0  0  0  0  0  0  0  0  0  0  0  0
    3.0664   17.8381   35.8499 C   0  0  0  0  0  0  0  0  0  0  0  0
    3.6304   13.5425   47.3705 N   0  0  0  0  0  0  0  0  0  0  0  0
    2.8691   14.6175   47.6018 C   0  0  0  0  0  0  0  0  0  0  0  0
    2.6133   15.3739   46.4516 C   0  0  0  0  0  0  0  0  0  0  0  0
    9.4781   11.0596   43.8033 N   0  0  0  0  0  0  0  0  0  0  0  0
    3.2612   14.6997   45.4444 C   0  0  0  0  0  0  0  0  0  0  0  0
    3.3482   14.9809   44.1178 N   0  0  0  0  0  0  0  0  0  0  0  0
    4.2407   14.2839   42.0882 O   0  0  0  0  0  0  0  0  0  0  0  0
    4.0646   14.1490   43.4252 C   0  0  0  0  0  0  0  0  0  0  0  0
    5.2051   11.5682   45.8375 N   0  0  0  0  0  0  0  0  0  0  0  0
    6.0478   10.5986   45.1637 C   0  0  0  0  0  0  0  0  0  0  0  0
    8.0618   12.2323   45.1194 C   0  0  0  0  0  0  0  0  0  0  0  0
    2.7568   16.9004   36.8312 C   0  0  0  0  0  0  0  0  0  0  0  0
    3.6834   19.0234   36.2184 C   0  0  0  0  0  0  0  0  0  0  0  0
    3.9660   19.2163   37.5582 C   0  0  0  0  0  0  0  0  0  0  0  0
    3.6798   18.3163   38.5274 N   0  0  0  0  0  0  0  0  0  0  0  0
    9.2788   12.1868   44.5110 N   0  3  0  0  0  0  0  0  0  0  0  0
    8.3452   10.3752   43.9750 C   0  0  0  0  0  0  0  0  0  0  0  0
   10.3097   13.1939   44.5659 C   0  0  0  0  0  0  0  0  0  0  0  0
    5.3357   12.3673   43.2122 H   0  0  0  0  0  0  0  0  0  0  0  0
    2.4253   15.1895   41.7376 H   0  0  0  0  0  0  0  0  0  0  0  0
    3.7877   16.3116   42.0574 H   0  0  0  0  0  0  0  0  0  0  0  0
    4.7824   15.7290   39.8800 H   0  0  0  0  0  0  0  0  0  0  0  0
    2.2034   14.0171   39.5352 H   0  0  0  0  0  0  0  0  0  0  0  0
    3.4636   14.3101   38.2603 H   0  0  0  0  0  0  0  0  0  0  0  0
    1.7657   16.4679   39.7660 H   0  0  0  0  0  0  0  0  0  0  0  0
    2.8163   17.6437   34.8115 H   0  0  0  0  0  0  0  0  0  0  0  0
    2.5169   14.8122   48.6039 H   0  0  0  0  0  0  0  0  0  0  0  0
    2.0344   16.2769   46.3432 H   0  0  0  0  0  0  0  0  0  0  0  0
    5.1865   11.5682   46.8587 H   0  0  0  0  0  0  0  0  0  0  0  0
    6.1100    9.6870   45.7667 H   0  0  0  0  0  0  0  0  0  0  0  0
    5.5315   10.3021   44.2404 H   0  0  0  0  0  0  0  0  0  0  0  0
    7.7429   13.0832   45.7062 H   0  0  0  0  0  0  0  0  0  0  0  0
    2.2554   15.9765   36.5618 H   0  0  0  0  0  0  0  0  0  0  0  0
    3.9322   19.7792   35.4826 H   0  0  0  0  0  0  0  0  0  0  0  0
    4.4392   20.1321   37.9018 H   0  0  0  0  0  0  0  0  0  0  0  0
    8.2307    9.4145   43.4888 H   0  0  0  0  0  0  0  0  0  0  0  0
    9.9631   14.0352   45.1717 H   0  0  0  0  0  0  0  0  0  0  0  0
   10.5215   13.5311   43.5484 H   0  0  0  0  0  0  0  0  0  0  0  0
   11.1987   12.7503   45.0203 H   0  0  0  0  0  0  0  0  0  0  0  0
  1  2  2  0  0  0  0
  1 18  1  0  0  0  0
  1 29  1  0  0  0  0
  2  3  1  0  0  0  0
  2 19  1  0  0  0  0
  3 11  1  0  0  0  0
  3 15  2  0  0  0  0
  4 20  1  0  0  0  0
  4 21  1  0  0  0  0
  4 27  2  0  0  0  0
  5  6  1  0  0  0  0
  5 17  1  0  0  0  0
  5 30  1  0  0  0  0
  5 31  1  0  0  0  0
  6  7  1  0  0  0  0
  6  8  1  0  0  0  0
  6 32  1  6  0  0  0
  7  8  1  0  0  0  0
  7 33  1  0  0  0  0
  7 34  1  0  0  0  0
  8  9  1  0  0  0  0
  8 35  1  1  0  0  0
  9 22  2  0  0  0  0
  9 25  1  0  0  0  0
 10 22  1  0  0  0  0
 10 23  2  0  0  0  0
 10 36  1  0  0  0  0
 11 12  1  0  0  0  0
 12 13  2  0  0  0  0
 12 37  1  0  0  0  0
 13 15  1  0  0  0  0
 13 38  1  0  0  0  0
 14 26  1  0  0  0  0
 14 27  1  0  0  0  0
 15 16  1  0  0  0  0
 16 18  2  0  0  0  0
 17 18  1  0  0  0  0
 19 20  1  0  0  0  0
 19 39  1  0  0  0  0
 20 40  1  0  0  0  0
 20 41  1  0  0  0  0
 21 26  2  0  0  0  0
 21 42  1  0  0  0  0
 22 43  1  0  0  0  0
 23 24  1  0  0  0  0
 23 44  1  0  0  0  0
 24 25  2  0  0  0  0
 24 45  1  0  0  0  0
 26 28  1  0  0  0  0
 27 46  1  0  0  0  0
 28 47  1  0  0  0  0
 28 48  1  0  0  0  0
 28 49  1  0  0  0  0
M  CHG  2   3   1  26   1
M  END
$$$$
