5B7
 OpenBabel04161909523D

 84 87  0  0  1  0  0  0  0  0999 V2000
   21.0777   27.7213   14.9272 C   0  0  0  0  0  0  0  0  0  0  0  0
   19.7052   27.7346   14.6663 C   0  0  0  0  0  0  0  0  0  0  0  0
   18.9262   26.6145   14.9638 C   0  0  0  0  0  0  0  0  0  0  0  0
   19.5143   25.4855   15.5349 C   0  0  0  0  0  0  0  0  0  0  0  0
   20.8892   25.4570   15.7788 C   0  0  0  0  0  0  0  0  0  0  0  0
   21.6641   26.5775   15.4833 C   0  0  0  0  0  0  0  0  0  0  0  0
   18.5370   24.0360   15.8711 S   0  0  0  0  0  0  0  0  0  0  0  0
   17.4750   23.9939   14.8779 O   0  0  0  0  0  0  0  0  0  0  0  0
   19.4389   22.9289   16.0561 O   0  0  0  0  0  0  0  0  0  0  0  0
   17.8160   24.3134   17.3695 N   0  0  0  0  0  0  0  0  0  0  0  0
   18.7186   24.6187   18.4918 C   0  0  0  0  0  0  0  0  0  0  0  0
   18.3812   23.8614   19.7765 C   0  0  0  0  0  0  0  0  0  0  0  0
   18.4662   22.3498   19.6034 C   0  0  0  0  0  0  0  0  0  0  0  0
   19.3565   24.2841   20.8739 C   0  0  0  0  0  0  0  0  0  0  0  0
   16.5343   25.0210   17.4004 C   0  0  0  0  0  0  0  0  0  0  0  0
   15.4386   24.0819   17.9214 C   0  0  1  0  0  0  0  0  0  0  0  0
   14.2775   24.8437   18.2826 O   0  0  0  0  0  0  0  0  0  0  0  0
   15.0627   22.9804   16.9175 C   0  0  1  0  0  0  0  0  0  0  0  0
   14.1813   22.0096   17.5785 N   0  0  0  0  0  0  0  0  0  0  0  0
   14.4918   20.6946   17.6866 C   0  0  0  0  0  0  0  0  0  0  0  0
   15.5612   20.2099   17.4960 O   0  0  0  0  0  0  0  0  0  0  0  0
   13.3875   19.9925   18.0756 O   0  0  0  0  0  0  0  0  0  0  0  0
   13.6169   18.5806   18.2885 C   0  0  1  0  0  0  0  0  0  0  0  0
   13.8664   18.3975   19.7763 C   0  0  0  0  0  0  0  0  0  0  0  0
   11.4771   17.9827   20.1727 O   0  0  0  0  0  0  0  0  0  0  0  0
   11.1918   17.9976   18.7797 C   0  0  1  0  0  0  0  0  0  0  0  0
   10.5937   19.2394   18.3793 O   0  0  0  0  0  0  0  0  0  0  0  0
   10.8586   19.4166   16.9755 C   0  0  0  0  0  0  0  0  0  0  0  0
   11.8002   18.3007   16.5411 C   0  0  1  0  0  0  0  0  0  0  0  0
   12.3826   17.7886   17.8483 C   0  0  1  0  0  0  0  0  0  0  0  0
   14.3472   23.5285   15.6723 C   0  0  0  0  0  0  0  0  0  0  0  0
   12.7757   21.9227   14.5639 C   0  0  0  0  0  0  0  0  0  0  0  0
   12.4936   20.8393   13.7315 C   0  0  0  0  0  0  0  0  0  0  0  0
   13.5176   20.1688   13.0745 C   0  0  0  0  0  0  0  0  0  0  0  0
   14.8087   20.6839   13.1423 C   0  0  0  0  0  0  0  0  0  0  0  0
   15.0906   21.7805   13.9702 C   0  0  0  0  0  0  0  0  0  0  0  0
   14.0757   22.4056   14.7016 C   0  0  0  0  0  0  0  0  0  0  0  0
   21.7625   28.8660   14.6049 O   0  0  0  0  0  0  0  0  0  0  0  0
   23.1146   28.8479   15.0592 C   0  0  0  0  0  0  0  0  0  0  0  0
   10.9993   17.2559   15.9579 O   0  0  0  0  0  0  0  0  0  0  0  0
   10.7642   17.4723   14.5716 C   0  0  0  0  0  0  0  0  0  0  0  0
   12.6032   18.7605   20.5485 C   0  0  0  0  0  0  0  0  0  0  0  0
   19.2448   28.6212   14.2346 H   0  0  0  0  0  0  0  0  0  0  0  0
   17.8604   26.6220   14.7561 H   0  0  0  0  0  0  0  0  0  0  0  0
   21.3483   24.5705   16.2082 H   0  0  0  0  0  0  0  0  0  0  0  0
   22.7307   26.5354   15.6935 H   0  0  0  0  0  0  0  0  0  0  0  0
   18.6572   25.6960   18.6787 H   0  0  0  0  0  0  0  0  0  0  0  0
   19.7369   24.3748   18.1922 H   0  0  0  0  0  0  0  0  0  0  0  0
   17.3681   24.1228   20.0957 H   0  0  0  0  0  0  0  0  0  0  0  0
   18.2339   21.8469   20.5506 H   0  0  0  0  0  0  0  0  0  0  0  0
   19.4761   22.0548   19.2960 H   0  0  0  0  0  0  0  0  0  0  0  0
   17.7555   22.0042   18.8480 H   0  0  0  0  0  0  0  0  0  0  0  0
   19.3241   25.3688   21.0254 H   0  0  0  0  0  0  0  0  0  0  0  0
   20.3838   24.0041   20.6057 H   0  0  0  0  0  0  0  0  0  0  0  0
   19.1049   23.7949   21.8220 H   0  0  0  0  0  0  0  0  0  0  0  0
   16.2756   25.3791   16.4049 H   0  0  0  0  0  0  0  0  0  0  0  0
   16.6094   25.9015   18.0441 H   0  0  0  0  0  0  0  0  0  0  0  0
   15.8022   23.5980   18.8347 H   0  0  0  0  0  0  0  0  0  0  0  0
   13.9545   25.2978   17.4869 H   0  0  0  0  0  0  0  0  0  0  0  0
   15.9791   22.4795   16.6028 H   0  0  0  0  0  0  0  0  0  0  0  0
   13.2945   22.3224   17.9232 H   0  0  0  0  0  0  0  0  0  0  0  0
   14.4833   18.2354   17.7062 H   0  0  0  0  0  0  0  0  0  0  0  0
   14.6768   19.0633   20.1035 H   0  0  0  0  0  0  0  0  0  0  0  0
   14.1524   17.3630   19.9894 H   0  0  0  0  0  0  0  0  0  0  0  0
   10.4685   17.1835   18.5943 H   0  0  0  0  0  0  0  0  0  0  0  0
   11.2964   20.4065   16.8170 H   0  0  0  0  0  0  0  0  0  0  0  0
    9.9016   19.3689   16.4486 H   0  0  0  0  0  0  0  0  0  0  0  0
   12.5670   18.6402   15.8331 H   0  0  0  0  0  0  0  0  0  0  0  0
   12.6433   16.7238   17.8136 H   0  0  0  0  0  0  0  0  0  0  0  0
   14.9432   24.3075   15.1855 H   0  0  0  0  0  0  0  0  0  0  0  0
   13.3927   24.0030   15.9605 H   0  0  0  0  0  0  0  0  0  0  0  0
   11.9728   22.3874   15.1291 H   0  0  0  0  0  0  0  0  0  0  0  0
   11.4619   20.5351   13.5993 H   0  0  0  0  0  0  0  0  0  0  0  0
   13.3143   19.2585   12.5137 H   0  0  0  0  0  0  0  0  0  0  0  0
   15.5941   20.2355   12.5390 H   0  0  0  0  0  0  0  0  0  0  0  0
   16.1150   22.1352   14.0527 H   0  0  0  0  0  0  0  0  0  0  0  0
   23.6058   29.7787   14.7741 H   0  0  0  0  0  0  0  0  0  0  0  0
   23.6530   28.0158   14.5936 H   0  0  0  0  0  0  0  0  0  0  0  0
   23.1321   28.7544   16.1510 H   0  0  0  0  0  0  0  0  0  0  0  0
   10.1308   16.6674   14.1852 H   0  0  0  0  0  0  0  0  0  0  0  0
   11.7203   17.4558   14.0456 H   0  0  0  0  0  0  0  0  0  0  0  0
   10.2633   18.4284   14.4028 H   0  0  0  0  0  0  0  0  0  0  0  0
   12.3841   19.8211   20.4033 H   0  0  0  0  0  0  0  0  0  0  0  0
   12.7887   18.5822   21.6121 H   0  0  0  0  0  0  0  0  0  0  0  0
  1  2  2  0  0  0  0
  1  6  1  0  0  0  0
  1 38  1  0  0  0  0
  2  3  1  0  0  0  0
  2 43  1  0  0  0  0
  3  4  2  0  0  0  0
  3 44  1  0  0  0  0
  4  5  1  0  0  0  0
  4  7  1  0  0  0  0
  5  6  2  0  0  0  0
  5 45  1  0  0  0  0
  6 46  1  0  0  0  0
  7  8  2  0  0  0  0
  7  9  2  0  0  0  0
  7 10  1  0  0  0  0
 10 11  1  0  0  0  0
 10 15  1  0  0  0  0
 11 12  1  0  0  0  0
 11 47  1  0  0  0  0
 11 48  1  0  0  0  0
 12 13  1  0  0  0  0
 12 14  1  0  0  0  0
 12 49  1  0  0  0  0
 13 50  1  0  0  0  0
 13 51  1  0  0  0  0
 13 52  1  0  0  0  0
 14 53  1  0  0  0  0
 14 54  1  0  0  0  0
 14 55  1  0  0  0  0
 15 16  1  0  0  0  0
 15 56  1  0  0  0  0
 15 57  1  0  0  0  0
 16 17  1  0  0  0  0
 16 18  1  0  0  0  0
 16 58  1  1  0  0  0
 17 59  1  0  0  0  0
 18 19  1  0  0  0  0
 18 31  1  0  0  0  0
 18 60  1  6  0  0  0
 19 20  1  0  0  0  0
 19 61  1  0  0  0  0
 20 21  2  0  0  0  0
 20 22  1  0  0  0  0
 22 23  1  0  0  0  0
 23 24  1  0  0  0  0
 23 30  1  0  0  0  0
 23 62  1  6  0  0  0
 24 42  1  0  0  0  0
 24 63  1  0  0  0  0
 24 64  1  0  0  0  0
 25 26  1  0  0  0  0
 25 42  1  0  0  0  0
 26 27  1  0  0  0  0
 26 30  1  0  0  0  0
 26 65  1  6  0  0  0
 27 28  1  0  0  0  0
 28 29  1  0  0  0  0
 28 66  1  0  0  0  0
 28 67  1  0  0  0  0
 29 30  1  0  0  0  0
 29 40  1  0  0  0  0
 29 68  1  6  0  0  0
 30 69  1  6  0  0  0
 31 37  1  0  0  0  0
 31 70  1  0  0  0  0
 31 71  1  0  0  0  0
 32 33  2  0  0  0  0
 32 37  1  0  0  0  0
 32 72  1  0  0  0  0
 33 34  1  0  0  0  0
 33 73  1  0  0  0  0
 34 35  2  0  0  0  0
 34 74  1  0  0  0  0
 35 36  1  0  0  0  0
 35 75  1  0  0  0  0
 36 37  2  0  0  0  0
 36 76  1  0  0  0  0
 38 39  1  0  0  0  0
 39 77  1  0  0  0  0
 39 78  1  0  0  0  0
 39 79  1  0  0  0  0
 40 41  1  0  0  0  0
 41 80  1  0  0  0  0
 41 81  1  0  0  0  0
 41 82  1  0  0  0  0
 42 83  1  0  0  0  0
 42 84  1  0  0  0  0
M  END
$$$$
