5EN
 OpenBabel04161909553D

 48 49  0  0  1  0  0  0  0  0999 V2000
  -27.3501   12.8180   -5.2871 C   0  0  0  0  0  0  0  0  0  0  0  0
  -26.8539   16.3104   -4.0769 C   0  0  0  0  0  0  0  0  0  0  0  0
  -27.1791   18.7099   -2.8198 C   0  0  0  0  0  0  0  0  0  0  0  0
  -27.4695   21.1448   -1.8630 C   0  0  0  0  0  0  0  0  0  0  0  0
  -27.7357   23.8150   -1.0457 C   0  0  0  0  0  0  0  0  0  0  0  0
  -27.1743   23.5092   -2.2768 C   0  0  0  0  0  0  0  0  0  0  0  0
  -25.5616   14.9499   -5.6077 C   0  0  0  0  0  0  0  0  0  0  0  0
  -24.6650   10.5207   -9.8884 C   0  0  2  0  0  0  0  0  0  0  0  0
  -24.1748    9.3217  -10.6829 C   0  0  0  0  0  0  0  0  0  0  0  0
  -22.2348   10.3429   -7.9915 O   0  0  0  0  0  0  0  0  0  0  0  0
  -23.2467    9.6428   -7.9657 C   0  0  0  0  0  0  0  0  0  0  0  0
  -23.1612    8.3128   -7.5239 N   0  0  0  0  0  0  0  0  0  0  0  0
  -22.0252    7.9346   -7.2261 O   0  0  0  0  0  0  0  0  0  0  0  0
  -24.6072   10.1655   -8.4038 C   0  0  1  0  0  0  0  0  0  0  0  0
  -24.8941   11.3504   -7.6190 N   0  0  0  0  0  0  0  0  0  0  0  0
  -26.0641   11.4606   -6.9142 C   0  0  0  0  0  0  0  0  0  0  0  0
  -26.9272   10.5988   -6.9345 O   0  0  0  0  0  0  0  0  0  0  0  0
  -26.2501   12.7019   -6.1444 C   0  0  0  0  0  0  0  0  0  0  0  0
  -27.5513   14.0139   -4.5912 C   0  0  0  0  0  0  0  0  0  0  0  0
  -26.6593   15.0714   -4.7561 C   0  0  0  0  0  0  0  0  0  0  0  0
  -26.9939   17.3648   -3.5160 C   0  0  0  0  0  0  0  0  0  0  0  0
  -27.3240   19.8052   -2.3295 C   0  0  0  0  0  0  0  0  0  0  0  0
  -28.0359   21.4329   -0.6222 C   0  0  0  0  0  0  0  0  0  0  0  0
  -28.1646   22.7719   -0.2120 C   0  0  0  0  0  0  0  0  0  0  0  0
  -27.8537   25.1361   -0.6530 N   0  0  0  0  0  0  0  0  0  0  0  0
  -27.0361   22.1793   -2.6938 C   0  0  0  0  0  0  0  0  0  0  0  0
  -25.3573   13.7656   -6.2970 C   0  0  0  0  0  0  0  0  0  0  0  0
  -26.0319   10.8247  -10.2340 O   0  0  0  0  0  0  0  0  0  0  0  0
  -24.3107    9.5396  -12.0084 F   0  0  0  0  0  0  0  0  0  0  0  0
  -24.9188    8.2373  -10.3568 F   0  0  0  0  0  0  0  0  0  0  0  0
  -23.8407   11.7537  -10.2381 C   0  0  0  0  0  0  0  0  0  0  0  0
  -28.0541   11.9921   -5.1704 H   0  0  0  0  0  0  0  0  0  0  0  0
  -26.8283   24.3027   -2.9410 H   0  0  0  0  0  0  0  0  0  0  0  0
  -24.8665   15.7729   -5.7582 H   0  0  0  0  0  0  0  0  0  0  0  0
  -23.1248    9.1058  -10.4676 H   0  0  0  0  0  0  0  0  0  0  0  0
  -25.3645    9.4075   -8.1930 H   0  0  0  0  0  0  0  0  0  0  0  0
  -24.1874   12.0714   -7.6444 H   0  0  0  0  0  0  0  0  0  0  0  0
  -28.4151   14.1140   -3.9379 H   0  0  0  0  0  0  0  0  0  0  0  0
  -28.3813   20.6339    0.0295 H   0  0  0  0  0  0  0  0  0  0  0  0
  -28.6057   22.9857    0.7551 H   0  0  0  0  0  0  0  0  0  0  0  0
  -27.5493   25.8762   -1.2789 H   0  0  0  0  0  0  0  0  0  0  0  0
  -28.2815   25.3825    0.2242 H   0  0  0  0  0  0  0  0  0  0  0  0
  -26.5974   21.9555   -3.6608 H   0  0  0  0  0  0  0  0  0  0  0  0
  -24.5063   13.7169   -6.9629 H   0  0  0  0  0  0  0  0  0  0  0  0
  -26.3329   11.5413   -9.6469 H   0  0  0  0  0  0  0  0  0  0  0  0
  -23.9348   11.9802  -11.3022 H   0  0  0  0  0  0  0  0  0  0  0  0
  -22.7864   11.6020   -9.9989 H   0  0  0  0  0  0  0  0  0  0  0  0
  -24.2032   12.6338   -9.6957 H   0  0  0  0  0  0  0  0  0  0  0  0
  1 18  2  0  0  0  0
  1 19  1  0  0  0  0
  1 32  1  0  0  0  0
  2 20  1  0  0  0  0
  2 21  3  0  0  0  0
  3 21  1  0  0  0  0
  3 22  3  0  0  0  0
  4 22  1  0  0  0  0
  4 23  2  0  0  0  0
  4 26  1  0  0  0  0
  5  6  1  0  0  0  0
  5 24  2  0  0  0  0
  5 25  1  0  0  0  0
  6 26  2  0  0  0  0
  6 33  1  0  0  0  0
  7 20  1  0  0  0  0
  7 27  2  0  0  0  0
  7 34  1  0  0  0  0
  8  9  1  6  0  0  0
  8 14  1  0  0  0  0
  8 28  1  0  0  0  0
  8 31  1  0  0  0  0
  9 29  1  0  0  0  0
  9 30  1  0  0  0  0
  9 35  1  0  0  0  0
 10 11  2  0  0  0  0
 11 12  1  0  0  0  0
 11 14  1  0  0  0  0
 12 13  2  0  0  0  0
 14 15  1  0  0  0  0
 14 36  1  1  0  0  0
 15 16  1  0  0  0  0
 15 37  1  0  0  0  0
 16 17  2  0  0  0  0
 16 18  1  0  0  0  0
 18 27  1  0  0  0  0
 19 20  2  0  0  0  0
 19 38  1  0  0  0  0
 23 24  1  0  0  0  0
 23 39  1  0  0  0  0
 24 40  1  0  0  0  0
 25 41  1  0  0  0  0
 25 42  1  0  0  0  0
 26 43  1  0  0  0  0
 27 44  1  0  0  0  0
 28 45  1  0  0  0  0
 31 46  1  0  0  0  0
 31 47  1  0  0  0  0
 31 48  1  0  0  0  0
M  END
$$$$
