5GD
 OpenBabel04161909553D

 26 26  0  0  0  0  0  0  0  0999 V2000
   11.7417    6.7444    1.2690 C   0  0  0  0  0  0  0  0  0  0  0  0
   14.0013    5.5604    1.1541 C   0  0  0  0  0  0  0  0  0  0  0  0
   10.4289    6.9141    0.8149 C   0  0  0  0  0  0  0  0  0  0  0  0
    9.9352    6.1715   -0.2323 C   0  0  0  0  0  0  0  0  0  0  0  0
   12.0595    4.9772   -0.3855 C   0  0  0  0  0  0  0  0  0  0  0  0
   12.2643    3.0947   -1.8358 C   0  0  0  0  0  0  0  0  0  0  0  0
   14.8006    4.8261    0.6407 O   0  0  0  0  0  0  0  0  0  0  0  0
   12.5707    5.7565    0.6879 C   0  0  0  0  0  0  0  0  0  0  0  0
   12.8573    4.0030   -0.9200 O   0  0  0  0  0  0  0  0  0  0  0  0
   10.7527    5.2190   -0.8356 C   0  0  0  0  0  0  0  0  0  0  0  0
    8.6818    6.2779   -0.7580 O   0  0  0  0  0  0  0  0  0  0  0  0
    7.7951    7.2054   -0.1440 C   0  0  0  0  0  0  0  0  0  0  0  0
   14.3667    6.3288    2.2574 N   0  0  0  0  0  0  0  0  0  0  0  0
   12.0383    7.4902    2.4267 N   0  0  0  0  0  0  0  0  0  0  0  0
    9.8250    7.6818    1.2904 H   0  0  0  0  0  0  0  0  0  0  0  0
   13.0274    2.3716   -2.1405 H   0  0  0  0  0  0  0  0  0  0  0  0
   11.9196    3.6213   -2.7305 H   0  0  0  0  0  0  0  0  0  0  0  0
   11.4398    2.5479   -1.3645 H   0  0  0  0  0  0  0  0  0  0  0  0
   10.3275    4.6712   -1.6660 H   0  0  0  0  0  0  0  0  0  0  0  0
    6.8503    7.1669   -0.6942 H   0  0  0  0  0  0  0  0  0  0  0  0
    8.1840    8.2275   -0.2069 H   0  0  0  0  0  0  0  0  0  0  0  0
    7.5967    6.9322    0.8982 H   0  0  0  0  0  0  0  0  0  0  0  0
   13.7183    6.5511    2.9315 H   0  0  0  0  0  0  0  0  0  0  0  0
   15.2882    6.1438    2.6475 H   0  0  0  0  0  0  0  0  0  0  0  0
   11.3559    8.1549    2.7386 H   0  0  0  0  0  0  0  0  0  0  0  0
   12.8989    7.8020    2.7967 H   0  0  0  0  0  0  0  0  0  0  0  0
  1  3  2  0  0  0  0
  1  8  1  0  0  0  0
  1 14  1  0  0  0  0
  2  7  2  0  0  0  0
  2  8  1  0  0  0  0
  2 13  1  0  0  0  0
  3  4  1  0  0  0  0
  3 15  1  0  0  0  0
  4 10  2  0  0  0  0
  4 11  1  0  0  0  0
  5  8  2  0  0  0  0
  5  9  1  0  0  0  0
  5 10  1  0  0  0  0
  6  9  1  0  0  0  0
  6 16  1  0  0  0  0
  6 17  1  0  0  0  0
  6 18  1  0  0  0  0
 10 19  1  0  0  0  0
 11 12  1  0  0  0  0
 12 20  1  0  0  0  0
 12 21  1  0  0  0  0
 12 22  1  0  0  0  0
 13 23  1  0  0  0  0
 13 24  1  0  0  0  0
 14 25  1  0  0  0  0
 14 26  1  0  0  0  0
M  END
$$$$
