5GO
 OpenBabel04161909553D

 48 49  0  0  1  0  0  0  0  0999 V2000
   77.2196  -14.5450  -51.1837 C   0  0  2  0  0  0  0  0  0  0  0  0
   78.0412  -13.5693  -52.0288 C   0  0  1  0  0  0  0  0  0  0  0  0
   77.4973  -12.1427  -51.9342 C   0  0  2  0  0  0  0  0  0  0  0  0
   75.9767  -12.1276  -52.1163 C   0  0  2  0  0  0  0  0  0  0  0  0
   75.3178  -13.1623  -51.1878 C   0  0  1  0  0  0  0  0  0  0  0  0
   73.8035  -13.2626  -51.3689 C   0  0  0  0  0  0  0  0  0  0  0  0
   77.7225  -15.8419  -51.4970 O   0  0  0  0  0  0  0  0  0  0  0  0
   79.4099  -13.6183  -51.5781 O   0  0  0  0  0  0  0  0  0  0  0  0
   78.0995  -11.3694  -52.9722 O   0  0  0  0  0  0  0  0  0  0  0  0
   75.6506  -12.4450  -53.4780 O   0  0  0  0  0  0  0  0  0  0  0  0
   75.8326  -14.4749  -51.4605 O   0  0  0  0  0  0  0  0  0  0  0  0
   73.2528  -14.2742  -50.5067 O   0  0  0  0  0  0  0  0  0  0  0  0
   77.2246  -19.6640  -50.0329 C   0  0  2  0  0  0  0  0  0  0  0  0
   76.2159  -19.2238  -51.0911 C   0  0  1  0  0  0  0  0  0  0  0  0
   76.6903  -17.9515  -51.7808 C   0  0  2  0  0  0  0  0  0  0  0  0
   77.0826  -16.8743  -50.7632 C   0  0  1  0  0  0  0  0  0  0  0  0
   78.0552  -17.4783  -49.7485 C   0  0  1  0  0  0  0  0  0  0  0  0
   78.4759  -16.4721  -48.6743 C   0  0  0  0  0  0  0  0  0  0  0  0
   76.6884  -20.7797  -49.3277 O   0  0  0  0  0  0  0  0  0  0  0  0
   76.0447  -20.2770  -52.0549 O   0  0  0  0  0  0  0  0  0  0  0  0
   75.6519  -17.5109  -52.6653 O   0  0  0  0  0  0  0  0  0  0  0  0
   77.4600  -18.6134  -49.1070 O   0  0  0  0  0  0  0  0  0  0  0  0
   77.3440  -15.9533  -47.9743 O   0  0  0  0  0  0  0  0  0  0  0  0
   78.5304   -9.8168  -52.6759 S   0  0  0  0  0  0  0  0  0  0  0  0
   77.3060   -9.2290  -52.1457 O   0  0  0  0  0  0  0  0  0  0  0  0
   78.8650   -9.3476  -54.0229 O   0  0  0  0  0  0  0  0  0  0  0  0
   79.6149   -9.9324  -51.7393 O   0  0  0  0  0  0  0  0  0  0  0  0
   77.3864  -14.3474  -50.1171 H   0  0  0  0  0  0  0  0  0  0  0  0
   78.0222  -13.9103  -53.0720 H   0  0  0  0  0  0  0  0  0  0  0  0
   77.7681  -11.7266  -50.9531 H   0  0  0  0  0  0  0  0  0  0  0  0
   75.5866  -11.1319  -51.8879 H   0  0  0  0  0  0  0  0  0  0  0  0
   75.5283  -12.9109  -50.1409 H   0  0  0  0  0  0  0  0  0  0  0  0
   73.5475  -13.5256  -52.4001 H   0  0  0  0  0  0  0  0  0  0  0  0
   73.3274  -12.3142  -51.1095 H   0  0  0  0  0  0  0  0  0  0  0  0
   79.4333  -13.2809  -50.6661 H   0  0  0  0  0  0  0  0  0  0  0  0
   76.1259  -11.7929  -54.0334 H   0  0  0  0  0  0  0  0  0  0  0  0
   73.6943  -15.1119  -50.7429 H   0  0  0  0  0  0  0  0  0  0  0  0
   78.1777  -19.9665  -50.4910 H   0  0  0  0  0  0  0  0  0  0  0  0
   75.2472  -19.0429  -50.6091 H   0  0  0  0  0  0  0  0  0  0  0  0
   77.5587  -18.1877  -52.4111 H   0  0  0  0  0  0  0  0  0  0  0  0
   76.1864  -16.5053  -50.2550 H   0  0  0  0  0  0  0  0  0  0  0  0
   78.9679  -17.8041  -50.2634 H   0  0  0  0  0  0  0  0  0  0  0  0
   79.0076  -15.6358  -49.1372 H   0  0  0  0  0  0  0  0  0  0  0  0
   79.1361  -16.9634  -47.9540 H   0  0  0  0  0  0  0  0  0  0  0  0
   76.5256  -21.4714  -49.9943 H   0  0  0  0  0  0  0  0  0  0  0  0
   75.4093  -19.9426  -52.7177 H   0  0  0  0  0  0  0  0  0  0  0  0
   74.8951  -17.2327  -52.1209 H   0  0  0  0  0  0  0  0  0  0  0  0
   77.6686  -15.3361  -47.2959 H   0  0  0  0  0  0  0  0  0  0  0  0
  1  2  1  0  0  0  0
  1  7  1  0  0  0  0
  1 11  1  0  0  0  0
  1 28  1  1  0  0  0
  2  3  1  0  0  0  0
  2  8  1  0  0  0  0
  2 29  1  6  0  0  0
  3  4  1  0  0  0  0
  3  9  1  0  0  0  0
  3 30  1  1  0  0  0
  4  5  1  0  0  0  0
  4 10  1  0  0  0  0
  4 31  1  1  0  0  0
  5  6  1  0  0  0  0
  5 11  1  0  0  0  0
  5 32  1  1  0  0  0
  6 12  1  0  0  0  0
  6 33  1  0  0  0  0
  6 34  1  0  0  0  0
  7 16  1  0  0  0  0
  8 35  1  0  0  0  0
  9 24  1  0  0  0  0
 10 36  1  0  0  0  0
 12 37  1  0  0  0  0
 13 14  1  0  0  0  0
 13 19  1  0  0  0  0
 13 22  1  0  0  0  0
 13 38  1  6  0  0  0
 14 15  1  0  0  0  0
 14 20  1  0  0  0  0
 14 39  1  1  0  0  0
 15 16  1  0  0  0  0
 15 21  1  0  0  0  0
 15 40  1  6  0  0  0
 16 17  1  0  0  0  0
 16 41  1  1  0  0  0
 17 18  1  0  0  0  0
 17 22  1  0  0  0  0
 17 42  1  6  0  0  0
 18 23  1  0  0  0  0
 18 43  1  0  0  0  0
 18 44  1  0  0  0  0
 19 45  1  0  0  0  0
 20 46  1  0  0  0  0
 21 47  1  0  0  0  0
 23 48  1  0  0  0  0
 24 25  2  0  0  0  0
 24 26  2  0  0  0  0
 24 27  1  0  0  0  0
M  END
$$$$
