5GP
 OpenBabel04161910523D

 36 38  0  0  1  0  0  0  0  0999 V2000
   -0.6551    1.8233   18.4117 P   0  0  0  0  0  0  0  0  0  0  0  0
    0.2940    1.0440   17.5198 O   0  0  0  0  0  0  0  0  0  0  0  0
    0.0162    2.8347   19.3310 O   0  0  0  0  0  0  0  0  0  0  0  0
   -1.9245    2.3236   17.7410 O   0  0  0  0  0  0  0  0  0  0  0  0
   -1.1840    0.6751   19.4610 O   0  0  0  0  0  0  0  0  0  0  0  0
   -2.1537    1.0938   20.3974 C   0  0  0  0  0  0  0  0  0  0  0  0
   -1.9230    0.4096   21.7446 C   0  0  1  0  0  0  0  0  0  0  0  0
   -2.3411   -0.9885   21.6926 O   0  0  0  0  0  0  0  0  0  0  0  0
   -0.4709    0.4340   22.2375 C   0  0  1  0  0  0  0  0  0  0  0  0
   -0.4713    0.5680   23.6854 O   0  0  0  0  0  0  0  0  0  0  0  0
    0.0451   -0.9579   21.9040 C   0  0  1  0  0  0  0  0  0  0  0  0
    1.1180   -1.3845   22.7637 O   0  0  0  0  0  0  0  0  0  0  0  0
   -1.2241   -1.7842   22.1040 C   0  0  2  0  0  0  0  0  0  0  0  0
   -1.2677   -3.0646   21.4304 N   0  3  0  0  0  0  0  0  0  0  0  0
   -0.7905   -3.3510   20.1689 C   0  0  0  0  0  0  0  0  0  0  0  0
   -0.9572   -4.6214   19.8475 N   0  0  0  0  0  0  0  0  0  0  0  0
   -1.5937   -5.1767   20.9259 C   0  0  0  0  0  0  0  0  0  0  0  0
   -2.0621   -6.5379   21.1274 C   0  0  0  0  0  0  0  0  0  0  0  0
   -1.9570   -7.4598   20.3350 O   0  0  0  0  0  0  0  0  0  0  0  0
   -2.6764   -6.7406   22.3741 N   0  3  0  0  0  0  0  0  0  0  0  0
   -2.8387   -5.7755   23.3408 C   0  0  0  0  0  0  0  0  0  0  0  0
   -3.4314   -6.1558   24.4190 N   0  0  0  0  0  0  0  0  0  0  0  0
   -2.3647   -4.5058   23.1019 N   0  3  0  0  0  0  0  0  0  0  0  0
   -1.7743   -4.2415   21.9168 C   0  0  0  0  0  0  0  0  0  0  0  0
   -3.1406    0.8186   20.0125 H   0  0  0  0  0  0  0  0  0  0  0  0
   -2.1269    2.1798   20.5449 H   0  0  0  0  0  0  0  0  0  0  0  0
   -2.5831    0.8783   22.4821 H   0  0  0  0  0  0  0  0  0  0  0  0
    0.1334    1.2417   21.8131 H   0  0  0  0  0  0  0  0  0  0  0  0
    0.4623    0.7225   23.9193 H   0  0  0  0  0  0  0  0  0  0  0  0
    0.3958   -0.9884   20.8713 H   0  0  0  0  0  0  0  0  0  0  0  0
    0.7794   -1.3880   23.6741 H   0  0  0  0  0  0  0  0  0  0  0  0
   -1.3582   -1.9924   23.1755 H   0  0  0  0  0  0  0  0  0  0  0  0
   -0.3262   -2.5951   19.5367 H   0  0  0  0  0  0  0  0  0  0  0  0
   -3.0263   -7.6605   22.5547 H   0  0  0  0  0  0  0  0  0  0  0  0
   -3.4894   -5.3680   25.0676 H   0  0  0  0  0  0  0  0  0  0  0  0
   -2.5528   -3.7891   23.7850 H   0  0  0  0  0  0  0  0  0  0  0  0
  1  2  2  0  0  0  0
  1  3  1  0  0  0  0
  1  4  1  0  0  0  0
  1  5  1  0  0  0  0
  5  6  1  0  0  0  0
  6  7  1  0  0  0  0
  6 25  1  0  0  0  0
  6 26  1  0  0  0  0
  7  8  1  0  0  0  0
  7  9  1  0  0  0  0
  7 27  1  1  0  0  0
  8 13  1  0  0  0  0
  9 10  1  0  0  0  0
  9 11  1  0  0  0  0
  9 28  1  6  0  0  0
 10 29  1  0  0  0  0
 11 12  1  0  0  0  0
 11 13  1  0  0  0  0
 11 30  1  6  0  0  0
 12 31  1  0  0  0  0
 13 14  1  0  0  0  0
 13 32  1  1  0  0  0
 14 15  2  0  0  0  0
 14 24  1  0  0  0  0
 15 16  1  0  0  0  0
 15 33  1  0  0  0  0
 16 17  2  0  0  0  0
 17 18  1  0  0  0  0
 17 24  1  0  0  0  0
 18 19  2  0  0  0  0
 18 20  1  0  0  0  0
 20 21  1  0  0  0  0
 20 34  1  0  0  0  0
 21 22  2  0  0  0  0
 21 23  1  0  0  0  0
 22 35  1  0  0  0  0
 23 24  2  0  0  0  0
 23 36  1  0  0  0  0
M  CHG  3  14   1  20   1  23   1
M  END
$$$$
