5LC
 OpenBabel04161911523D

 49 50  0  0  0  0  0  0  0  0999 V2000
   -7.3244    7.6082    1.1478 C   0  0  0  0  0  0  0  0  0  0  0  0
   -8.3921    6.8616    1.6325 C   0  0  0  0  0  0  0  0  0  0  0  0
   -9.5895    7.4589    2.0071 C   0  0  0  0  0  0  0  0  0  0  0  0
   -9.7669    8.8366    1.8766 C   0  0  0  0  0  0  0  0  0  0  0  0
   -8.6842    9.5987    1.4033 C   0  0  0  0  0  0  0  0  0  0  0  0
   -7.4694    8.9926    1.0398 C   0  0  0  0  0  0  0  0  0  0  0  0
  -11.0807    9.4999    2.1677 C   0  0  0  0  0  0  0  0  0  0  0  0
  -12.1691    8.6323    2.1937 N   0  0  0  0  0  0  0  0  0  0  0  0
  -11.1582   10.6877    2.3056 O   0  0  0  0  0  0  0  0  0  0  0  0
  -13.5357    8.9723    2.5480 C   0  0  0  0  0  0  0  0  0  0  0  0
  -14.5872    8.2326    1.7085 C   0  0  0  0  0  0  0  0  0  0  0  0
  -14.5703    6.6896    1.7228 C   0  0  0  0  0  0  0  0  0  0  0  0
  -13.4407    4.0627    0.1853 N   0  0  0  0  0  0  0  0  0  0  0  0
  -12.9942    3.0660   -0.6265 C   0  0  0  0  0  0  0  0  0  0  0  0
  -11.7525    2.3278   -0.2080 C   0  0  0  0  0  0  0  0  0  0  0  0
  -13.5432    2.7642   -1.6676 O   0  0  0  0  0  0  0  0  0  0  0  0
  -10.9825    2.8154    0.8474 C   0  0  0  0  0  0  0  0  0  0  0  0
   -9.8688    2.1273    1.3217 C   0  0  0  0  0  0  0  0  0  0  0  0
   -9.4865    0.9261    0.7380 C   0  0  0  0  0  0  0  0  0  0  0  0
  -10.2483    0.4077   -0.3218 C   0  0  0  0  0  0  0  0  0  0  0  0
  -11.3796    1.1019   -0.7956 C   0  0  0  0  0  0  0  0  0  0  0  0
  -11.2623    4.0177    1.4617 O   0  0  0  0  0  0  0  0  0  0  0  0
   -9.1737    2.6407    2.3882 O   0  0  0  0  0  0  0  0  0  0  0  0
  -14.7442    6.1791    0.2847 C   0  0  0  0  0  0  0  0  0  0  0  0
  -10.5852    6.6566    2.5128 O   0  0  0  0  0  0  0  0  0  0  0  0
  -14.7398    4.6786    0.0351 C   0  0  0  0  0  0  0  0  0  0  0  0
   -8.2793    5.5032    1.7554 O   0  0  0  0  0  0  0  0  0  0  0  0
   -6.3819    7.1379    0.8952 H   0  0  0  0  0  0  0  0  0  0  0  0
   -8.7821   10.6767    1.2833 H   0  0  0  0  0  0  0  0  0  0  0  0
   -6.6417    9.5954    0.6612 H   0  0  0  0  0  0  0  0  0  0  0  0
  -11.9573    7.6597    2.0268 H   0  0  0  0  0  0  0  0  0  0  0  0
  -13.6668   10.0457    2.4021 H   0  0  0  0  0  0  0  0  0  0  0  0
  -13.6870    8.7329    3.6035 H   0  0  0  0  0  0  0  0  0  0  0  0
  -14.4860    8.5804    0.6743 H   0  0  0  0  0  0  0  0  0  0  0  0
  -15.5699    8.5563    2.0732 H   0  0  0  0  0  0  0  0  0  0  0  0
  -15.4008    6.3244    2.3403 H   0  0  0  0  0  0  0  0  0  0  0  0
  -13.6339    6.3165    2.1377 H   0  0  0  0  0  0  0  0  0  0  0  0
  -12.8341    4.3468    0.9367 H   0  0  0  0  0  0  0  0  0  0  0  0
   -8.6116    0.3891    1.0936 H   0  0  0  0  0  0  0  0  0  0  0  0
   -9.9636   -0.5421   -0.7809 H   0  0  0  0  0  0  0  0  0  0  0  0
  -11.9537    0.6832   -1.6225 H   0  0  0  0  0  0  0  0  0  0  0  0
  -11.4771    3.7955    2.3899 H   0  0  0  0  0  0  0  0  0  0  0  0
   -9.6116    3.4938    2.5872 H   0  0  0  0  0  0  0  0  0  0  0  0
  -13.9446    6.6159   -0.3219 H   0  0  0  0  0  0  0  0  0  0  0  0
  -15.7124    6.5439   -0.0768 H   0  0  0  0  0  0  0  0  0  0  0  0
  -10.2683    5.7434    2.4474 H   0  0  0  0  0  0  0  0  0  0  0  0
  -15.4243    4.1814    0.7252 H   0  0  0  0  0  0  0  0  0  0  0  0
  -15.0837    4.5128   -0.9874 H   0  0  0  0  0  0  0  0  0  0  0  0
   -8.3818    5.3338    2.7057 H   0  0  0  0  0  0  0  0  0  0  0  0
  1  2  2  0  0  0  0
  1  6  1  0  0  0  0
  1 28  1  0  0  0  0
  2  3  1  0  0  0  0
  2 27  1  0  0  0  0
  3  4  2  0  0  0  0
  3 25  1  0  0  0  0
  4  5  1  0  0  0  0
  4  7  1  0  0  0  0
  5  6  2  0  0  0  0
  5 29  1  0  0  0  0
  6 30  1  0  0  0  0
  7  8  1  0  0  0  0
  7  9  2  0  0  0  0
  8 10  1  0  0  0  0
  8 31  1  0  0  0  0
 10 11  1  0  0  0  0
 10 32  1  0  0  0  0
 10 33  1  0  0  0  0
 11 12  1  0  0  0  0
 11 34  1  0  0  0  0
 11 35  1  0  0  0  0
 12 24  1  0  0  0  0
 12 36  1  0  0  0  0
 12 37  1  0  0  0  0
 13 14  1  0  0  0  0
 13 26  1  0  0  0  0
 13 38  1  0  0  0  0
 14 15  1  0  0  0  0
 14 16  2  0  0  0  0
 15 17  2  0  0  0  0
 15 21  1  0  0  0  0
 17 18  1  0  0  0  0
 17 22  1  0  0  0  0
 18 19  2  0  0  0  0
 18 23  1  0  0  0  0
 19 20  1  0  0  0  0
 19 39  1  0  0  0  0
 20 21  2  0  0  0  0
 20 40  1  0  0  0  0
 21 41  1  0  0  0  0
 22 42  1  0  0  0  0
 23 43  1  0  0  0  0
 24 26  1  0  0  0  0
 24 44  1  0  0  0  0
 24 45  1  0  0  0  0
 25 46  1  0  0  0  0
 26 47  1  0  0  0  0
 26 48  1  0  0  0  0
 27 49  1  0  0  0  0
M  END
$$$$
