5LD
 OpenBabel04161910043D

 21 21  0  0  1  0  0  0  0  0999 V2000
  -41.0500  -24.3237   12.3173 O   0  0  0  0  0  0  0  0  0  0  0  0
  -40.4498  -23.6894   11.0695 P   0  0  0  0  0  0  0  0  0  0  0  0
  -39.0320  -23.1687   11.2038 O   0  0  0  0  0  0  0  0  0  0  0  0
  -40.7433  -24.4189    9.7662 O   0  0  0  0  0  0  0  0  0  0  0  0
  -41.4663  -22.1400   10.9056 C   0  0  0  0  0  0  0  0  0  0  0  0
  -40.9145  -21.0775    9.9698 C   0  0  2  0  0  0  0  0  0  0  0  0
  -41.7554  -19.8935   10.1216 O   0  0  0  0  0  0  0  0  0  0  0  0
  -40.9096  -21.4769    8.4983 C   0  0  0  0  0  0  0  0  0  0  0  0
  -39.9717  -20.6674    7.7196 N   0  3  0  0  0  0  0  0  0  0  0  0
  -39.9003  -19.3159    7.8613 N   0  0  0  0  0  0  0  0  0  0  0  0
  -38.9314  -19.0144    7.0030 C   0  0  0  0  0  0  0  0  0  0  0  0
  -38.4569  -20.0473    6.2594 N   0  0  0  0  0  0  0  0  0  0  0  0
  -39.1330  -21.0689    6.7339 C   0  0  0  0  0  0  0  0  0  0  0  0
  -41.5444  -21.7045   11.9079 H   0  0  0  0  0  0  0  0  0  0  0  0
  -42.4782  -22.4338   10.6071 H   0  0  0  0  0  0  0  0  0  0  0  0
  -39.9017  -20.8027   10.2835 H   0  0  0  0  0  0  0  0  0  0  0  0
  -42.6430  -20.1536    9.8275 H   0  0  0  0  0  0  0  0  0  0  0  0
  -41.8970  -21.3107    8.0428 H   0  0  0  0  0  0  0  0  0  0  0  0
  -40.6344  -22.5197    8.3412 H   0  0  0  0  0  0  0  0  0  0  0  0
  -38.5757  -17.9942    6.9076 H   0  0  0  0  0  0  0  0  0  0  0  0
  -39.0564  -22.1052    6.4090 H   0  0  0  0  0  0  0  0  0  0  0  0
  1  2  2  0  0  0  0
  2  3  1  0  0  0  0
  2  4  1  0  0  0  0
  2  5  1  0  0  0  0
  5  6  1  0  0  0  0
  5 14  1  0  0  0  0
  5 15  1  0  0  0  0
  6  7  1  0  0  0  0
  6  8  1  0  0  0  0
  6 16  1  1  0  0  0
  7 17  1  0  0  0  0
  8  9  1  0  0  0  0
  8 18  1  0  0  0  0
  8 19  1  0  0  0  0
  9 10  1  0  0  0  0
  9 13  2  0  0  0  0
 10 11  1  0  0  0  0
 11 12  2  0  0  0  0
 11 20  1  0  0  0  0
 12 13  1  0  0  0  0
 13 21  1  0  0  0  0
M  CHG  1   9   1
M  END
$$$$
