5M7
 OpenBabel04161909593D

 44 47  0  0  0  0  0  0  0  0999 V2000
    6.0199    8.1113   19.6753 N   0  0  0  0  0  0  0  0  0  0  0  0
    5.6275    7.9249   18.3784 C   0  0  0  0  0  0  0  0  0  0  0  0
    4.3860    7.3321   18.1159 C   0  0  0  0  0  0  0  0  0  0  0  0
    3.6198    6.8212   19.2009 C   0  0  0  0  0  0  0  0  0  0  0  0
    5.2872    7.6663   20.7062 C   0  0  0  0  0  0  0  0  0  0  0  0
    4.0713    6.9999   20.5303 C   0  0  0  0  0  0  0  0  0  0  0  0
    3.3658    6.5500   21.6786 C   0  0  0  0  0  0  0  0  0  0  0  0
    3.8671    6.7463   22.9571 C   0  0  0  0  0  0  0  0  0  0  0  0
    5.0787    7.3967   23.1268 C   0  0  0  0  0  0  0  0  0  0  0  0
    5.7699    7.8537   22.0005 C   0  0  0  0  0  0  0  0  0  0  0  0
    2.3756    6.0709   18.9470 C   0  0  0  0  0  0  0  0  0  0  0  0
    2.3684    4.6676   19.0336 C   0  0  0  0  0  0  0  0  0  0  0  0
    1.1884    6.7295   18.6051 C   0  0  0  0  0  0  0  0  0  0  0  0
    0.0228    6.0059   18.3689 C   0  0  0  0  0  0  0  0  0  0  0  0
    1.2011    3.9430   18.8054 C   0  0  0  0  0  0  0  0  0  0  0  0
    0.0248    4.6094   18.4751 C   0  0  0  0  0  0  0  0  0  0  0  0
    3.8102    7.2232   16.7393 C   0  0  0  0  0  0  0  0  0  0  0  0
    3.7573    6.0584   16.2259 O   0  0  0  0  0  0  0  0  0  0  0  0
    3.4068    8.2966   16.1886 O   0  0  0  0  0  0  0  0  0  0  0  0
    6.5632    8.3178   17.4053 N   0  0  0  0  0  0  0  0  0  0  0  0
    6.7604    7.4696   16.2145 C   0  0  0  0  0  0  0  0  0  0  0  0
    7.8373    8.8311   17.9195 C   0  0  0  0  0  0  0  0  0  0  0  0
    8.7204    7.6854   18.4462 C   0  0  0  0  0  0  0  0  0  0  0  0
    7.9122    6.4706   16.4039 C   0  0  0  0  0  0  0  0  0  0  0  0
    8.3353    6.3246   17.8602 C   0  0  0  0  0  0  0  0  0  0  0  0
    2.9925    6.1808   24.3255 Cl  0  0  0  0  0  0  0  0  0  0  0  0
    2.4096    6.0424   21.5632 H   0  0  0  0  0  0  0  0  0  0  0  0
    5.4919    7.5558   24.1169 H   0  0  0  0  0  0  0  0  0  0  0  0
    6.7231    8.3631   22.1278 H   0  0  0  0  0  0  0  0  0  0  0  0
    3.2957    4.1389   19.2509 H   0  0  0  0  0  0  0  0  0  0  0  0
    1.1910    7.8111   18.4788 H   0  0  0  0  0  0  0  0  0  0  0  0
   -0.8863    6.5276   18.0706 H   0  0  0  0  0  0  0  0  0  0  0  0
    1.2199    2.8585   18.8528 H   0  0  0  0  0  0  0  0  0  0  0  0
   -0.8791    4.0518   18.2645 H   0  0  0  0  0  0  0  0  0  0  0  0
    6.9964    8.1256   15.3658 H   0  0  0  0  0  0  0  0  0  0  0  0
    5.8952    6.9125   15.8854 H   0  0  0  0  0  0  0  0  0  0  0  0
    7.7102    9.6231   18.6681 H   0  0  0  0  0  0  0  0  0  0  0  0
    8.3670    9.3183   17.0879 H   0  0  0  0  0  0  0  0  0  0  0  0
    8.6677    7.6356   19.5397 H   0  0  0  0  0  0  0  0  0  0  0  0
    9.7665    7.9068   18.2035 H   0  0  0  0  0  0  0  0  0  0  0  0
    8.7747    6.8058   15.8141 H   0  0  0  0  0  0  0  0  0  0  0  0
    7.6214    5.4959   15.9953 H   0  0  0  0  0  0  0  0  0  0  0  0
    7.5040    5.8927   18.4358 H   0  0  0  0  0  0  0  0  0  0  0  0
    9.1649    5.6178   17.9562 H   0  0  0  0  0  0  0  0  0  0  0  0
  1  2  2  0  0  0  0
  1  5  1  0  0  0  0
  2  3  1  0  0  0  0
  2 20  1  0  0  0  0
  3  4  2  0  0  0  0
  3 17  1  0  0  0  0
  4  6  1  0  0  0  0
  4 11  1  0  0  0  0
  5  6  2  0  0  0  0
  5 10  1  0  0  0  0
  6  7  1  0  0  0  0
  7  8  2  0  0  0  0
  7 27  1  0  0  0  0
  8  9  1  0  0  0  0
  8 26  1  0  0  0  0
  9 10  2  0  0  0  0
  9 28  1  0  0  0  0
 10 29  1  0  0  0  0
 11 12  2  0  0  0  0
 11 13  1  0  0  0  0
 12 15  1  0  0  0  0
 12 30  1  0  0  0  0
 13 14  2  0  0  0  0
 13 31  1  0  0  0  0
 14 16  1  0  0  0  0
 14 32  1  0  0  0  0
 15 16  2  0  0  0  0
 15 33  1  0  0  0  0
 16 34  1  0  0  0  0
 17 18  2  0  0  0  0
 17 19  1  0  0  0  0
 20 21  1  0  0  0  0
 20 22  1  0  0  0  0
 21 24  1  0  0  0  0
 21 35  1  0  0  0  0
 21 36  1  0  0  0  0
 22 23  1  0  0  0  0
 22 37  1  0  0  0  0
 22 38  1  0  0  0  0
 23 25  1  0  0  0  0
 23 39  1  0  0  0  0
 23 40  1  0  0  0  0
 24 25  1  0  0  0  0
 24 41  1  0  0  0  0
 24 42  1  0  0  0  0
 25 43  1  0  0  0  0
 25 44  1  0  0  0  0
M  END
$$$$
