5MJ
 OpenBabel04161912023D

 45 47  0  0  0  0  0  0  0  0999 V2000
    7.7548  -12.1339   -9.0652 C   0  0  0  0  0  0  0  0  0  0  0  0
    7.0254  -13.8422  -11.1867 C   0  0  0  0  0  0  0  0  0  0  0  0
    6.4088  -12.3364   -9.3954 C   0  0  0  0  0  0  0  0  0  0  0  0
    6.0485  -13.1754  -10.4496 C   0  0  0  0  0  0  0  0  0  0  0  0
    8.3664  -13.6473  -10.8537 C   0  0  0  0  0  0  0  0  0  0  0  0
    8.7317  -12.7999   -9.7999 C   0  0  0  0  0  0  0  0  0  0  0  0
   11.7543   -5.1814    0.3361 O   0  0  0  0  0  0  0  0  0  0  0  0
   11.4846   -5.9634   -0.5639 C   0  0  0  0  0  0  0  0  0  0  0  0
   12.3579   -7.0972   -0.9973 C   0  0  0  0  0  0  0  0  0  0  0  0
   11.6056   -7.6550   -2.1997 C   0  0  0  0  0  0  0  0  0  0  0  0
   10.3214   -6.8672   -2.2728 C   0  0  0  0  0  0  0  0  0  0  0  0
   10.2414   -5.9042   -1.3436 C   0  0  0  0  0  0  0  0  0  0  0  0
    9.1603   -4.9237   -1.1066 C   0  0  0  0  0  0  0  0  0  0  0  0
    9.3158   -7.1597   -3.1634 N   0  0  0  0  0  0  0  0  0  0  0  0
    9.3051   -8.0660   -4.2340 C   0  0  0  0  0  0  0  0  0  0  0  0
   10.3529   -8.1038   -5.1581 C   0  0  0  0  0  0  0  0  0  0  0  0
   10.3196   -8.9857   -6.2407 C   0  0  0  0  0  0  0  0  0  0  0  0
    8.2491   -8.9829   -4.3903 C   0  0  0  0  0  0  0  0  0  0  0  0
    6.9469   -9.0350   -3.2494 Cl  0  0  0  0  0  0  0  0  0  0  0  0
    8.2220   -9.8872   -5.4552 C   0  0  0  0  0  0  0  0  0  0  0  0
    9.2447   -9.8681   -6.4088 C   0  0  0  0  0  0  0  0  0  0  0  0
    9.2516  -10.7639   -7.6049 C   0  0  0  0  0  0  0  0  0  0  0  0
   10.3171  -10.9454   -8.1833 O   0  0  0  0  0  0  0  0  0  0  0  0
    8.0204  -11.2658   -7.9880 N   0  0  0  0  0  0  0  0  0  0  0  0
    6.7846  -14.6833  -12.2385 O   0  0  0  0  0  0  0  0  0  0  0  0
    5.4172  -14.9854  -12.5049 C   0  0  0  0  0  0  0  0  0  0  0  0
    5.6195  -11.8273   -8.8515 H   0  0  0  0  0  0  0  0  0  0  0  0
    4.9911  -13.2793  -10.6775 H   0  0  0  0  0  0  0  0  0  0  0  0
    9.1459  -14.1633  -11.4161 H   0  0  0  0  0  0  0  0  0  0  0  0
    9.7893  -12.6897   -9.5734 H   0  0  0  0  0  0  0  0  0  0  0  0
   12.4401   -7.8340   -0.1932 H   0  0  0  0  0  0  0  0  0  0  0  0
   13.3466   -6.7263   -1.2806 H   0  0  0  0  0  0  0  0  0  0  0  0
   11.4218   -8.7276   -2.0759 H   0  0  0  0  0  0  0  0  0  0  0  0
   12.2107   -7.5125   -3.1000 H   0  0  0  0  0  0  0  0  0  0  0  0
    9.4009   -4.2435   -0.2871 H   0  0  0  0  0  0  0  0  0  0  0  0
    8.2238   -5.4333   -0.8587 H   0  0  0  0  0  0  0  0  0  0  0  0
    8.9991   -4.3207   -2.0069 H   0  0  0  0  0  0  0  0  0  0  0  0
    8.3997   -6.7760   -2.9410 H   0  0  0  0  0  0  0  0  0  0  0  0
   11.1841   -7.4088   -5.0748 H   0  0  0  0  0  0  0  0  0  0  0  0
   11.1372   -8.9697   -6.9594 H   0  0  0  0  0  0  0  0  0  0  0  0
    7.4135  -10.6082   -5.5044 H   0  0  0  0  0  0  0  0  0  0  0  0
    7.1995  -10.9119   -7.5181 H   0  0  0  0  0  0  0  0  0  0  0  0
    5.3775  -15.6652  -13.3597 H   0  0  0  0  0  0  0  0  0  0  0  0
    4.8568  -14.0843  -12.7757 H   0  0  0  0  0  0  0  0  0  0  0  0
    4.9548  -15.4928  -11.6515 H   0  0  0  0  0  0  0  0  0  0  0  0
  1  3  2  0  0  0  0
  1  6  1  0  0  0  0
  1 24  1  0  0  0  0
  2  4  2  0  0  0  0
  2  5  1  0  0  0  0
  2 25  1  0  0  0  0
  3  4  1  0  0  0  0
  3 27  1  0  0  0  0
  4 28  1  0  0  0  0
  5  6  2  0  0  0  0
  5 29  1  0  0  0  0
  6 30  1  0  0  0  0
  7  8  2  0  0  0  0
  8  9  1  0  0  0  0
  8 12  1  0  0  0  0
  9 10  1  0  0  0  0
  9 31  1  0  0  0  0
  9 32  1  0  0  0  0
 10 11  1  0  0  0  0
 10 33  1  0  0  0  0
 10 34  1  0  0  0  0
 11 12  2  0  0  0  0
 11 14  1  0  0  0  0
 12 13  1  0  0  0  0
 13 35  1  0  0  0  0
 13 36  1  0  0  0  0
 13 37  1  0  0  0  0
 14 15  1  0  0  0  0
 14 38  1  0  0  0  0
 15 16  2  0  0  0  0
 15 18  1  0  0  0  0
 16 17  1  0  0  0  0
 16 39  1  0  0  0  0
 17 21  2  0  0  0  0
 17 40  1  0  0  0  0
 18 19  1  0  0  0  0
 18 20  2  0  0  0  0
 20 21  1  0  0  0  0
 20 41  1  0  0  0  0
 21 22  1  0  0  0  0
 22 23  2  0  0  0  0
 22 24  1  0  0  0  0
 24 42  1  0  0  0  0
 25 26  1  0  0  0  0
 26 43  1  0  0  0  0
 26 44  1  0  0  0  0
 26 45  1  0  0  0  0
M  END
$$$$
