5O5
 OpenBabel04161910023D

 20 21  0  0  0  0  0  0  0  0999 V2000
   15.5579    5.9814   15.3772 Cl  0  0  0  0  0  0  0  0  0  0  0  0
   15.6363    4.6851   14.2354 C   0  0  0  0  0  0  0  0  0  0  0  0
   15.1128    4.8011   12.9428 C   0  0  0  0  0  0  0  0  0  0  0  0
   14.3524    6.2474   12.3751 Cl  0  0  0  0  0  0  0  0  0  0  0  0
   15.2043    3.7256   12.0602 C   0  0  0  0  0  0  0  0  0  0  0  0
   15.8044    2.5340   12.4717 C   0  0  0  0  0  0  0  0  0  0  0  0
   16.3267    2.4080   13.7637 C   0  0  0  0  0  0  0  0  0  0  0  0
   16.8591    1.1771   14.0367 O   0  0  0  0  0  0  0  0  0  0  0  0
   17.3567    0.9180   15.3650 C   0  0  0  0  0  0  0  0  0  0  0  0
   16.3375    0.8975   16.4464 C   0  0  0  0  0  0  0  0  0  0  0  0
   15.1782    0.2126   16.3890 N   0  0  0  0  0  0  0  0  0  0  0  0
   14.5236    0.5944   17.5126 N   0  0  0  0  0  0  0  0  0  0  0  0
   15.3070    1.4368   18.2287 N   0  0  0  0  0  0  0  0  0  0  0  0
   16.4867    1.6048   17.5893 N   0  0  0  0  0  0  0  0  0  0  0  0
   16.2520    3.4932   14.6356 C   0  0  0  0  0  0  0  0  0  0  0  0
   14.7968    3.7967   11.0531 H   0  0  0  0  0  0  0  0  0  0  0  0
   15.8530    1.6865   11.7918 H   0  0  0  0  0  0  0  0  0  0  0  0
   18.1671    1.6223   15.5915 H   0  0  0  0  0  0  0  0  0  0  0  0
   17.8170   -0.0768   15.3327 H   0  0  0  0  0  0  0  0  0  0  0  0
   16.6397    3.4420   15.6480 H   0  0  0  0  0  0  0  0  0  0  0  0
  1  2  1  0  0  0  0
  2  3  2  0  0  0  0
  2 15  1  0  0  0  0
  3  4  1  0  0  0  0
  3  5  1  0  0  0  0
  5  6  2  0  0  0  0
  5 16  1  0  0  0  0
  6  7  1  0  0  0  0
  6 17  1  0  0  0  0
  7  8  1  0  0  0  0
  7 15  2  0  0  0  0
  8  9  1  0  0  0  0
  9 10  1  0  0  0  0
  9 18  1  0  0  0  0
  9 19  1  0  0  0  0
 10 11  1  0  0  0  0
 10 14  2  0  0  0  0
 11 12  1  0  0  0  0
 12 13  2  0  0  0  0
 13 14  1  0  0  0  0
 15 20  1  0  0  0  0
M  END
$$$$
