5OG
 OpenBabel04161910003D

 34 35  0  0  0  0  0  0  0  0999 V2000
   28.3147   98.2391   28.3826 O   0  0  0  0  0  0  0  0  0  0  0  0
   27.6632   98.8689   29.2698 C   0  0  0  0  0  0  0  0  0  0  0  0
   26.2693   98.7302   29.3379 N   0  0  0  0  0  0  0  0  0  0  0  0
   25.7070   98.0042   28.5146 O   0  0  0  0  0  0  0  0  0  0  0  0
   28.3355   99.7381   30.2735 C   0  0  0  0  0  0  0  0  0  0  0  0
   29.5599   99.4449   30.7453 C   0  0  0  0  0  0  0  0  0  0  0  0
   30.1863   99.9867   31.9631 C   0  0  0  0  0  0  0  0  0  0  0  0
   31.3795   99.3963   32.4407 C   0  0  0  0  0  0  0  0  0  0  0  0
   29.6568  101.0436   32.6961 C   0  0  0  0  0  0  0  0  0  0  0  0
   30.3018  101.5057   33.8455 C   0  0  0  0  0  0  0  0  0  0  0  0
   31.4879  100.9063   34.2933 C   0  0  0  0  0  0  0  0  0  0  0  0
   32.0333   99.8244   33.6015 C   0  0  0  0  0  0  0  0  0  0  0  0
   33.5617   98.9681   34.1689 S   0  0  0  0  0  0  0  0  0  0  0  0
   33.3598   98.4797   35.5202 O   0  0  0  0  0  0  0  0  0  0  0  0
   33.9433   97.9821   33.1911 O   0  0  0  0  0  0  0  0  0  0  0  0
   34.7649  100.1659   34.1799 N   0  0  0  0  0  0  0  0  0  0  0  0
   35.0120  101.1198   33.1324 C   0  0  0  0  0  0  0  0  0  0  0  0
   35.7395  100.8102   31.9835 C   0  0  0  0  0  0  0  0  0  0  0  0
   35.9601  101.7837   31.0047 C   0  0  0  0  0  0  0  0  0  0  0  0
   35.4766  103.0754   31.1701 C   0  0  0  0  0  0  0  0  0  0  0  0
   34.7687  103.3959   32.3199 C   0  0  0  0  0  0  0  0  0  0  0  0
   34.5510  102.4307   33.3032 C   0  0  0  0  0  0  0  0  0  0  0  0
   27.7627  100.5655   30.6675 H   0  0  0  0  0  0  0  0  0  0  0  0
   30.1424   98.7251   30.1812 H   0  0  0  0  0  0  0  0  0  0  0  0
   31.8010   98.5694   31.8775 H   0  0  0  0  0  0  0  0  0  0  0  0
   28.7422  101.5327   32.3801 H   0  0  0  0  0  0  0  0  0  0  0  0
   29.8766  102.3370   34.4020 H   0  0  0  0  0  0  0  0  0  0  0  0
   31.9760  101.2897   35.1816 H   0  0  0  0  0  0  0  0  0  0  0  0
   35.4608  100.0953   34.9200 H   0  0  0  0  0  0  0  0  0  0  0  0
   36.1113   99.8087   31.8212 H   0  0  0  0  0  0  0  0  0  0  0  0
   36.5128  101.5273   30.1057 H   0  0  0  0  0  0  0  0  0  0  0  0
   35.6497  103.8297   30.4052 H   0  0  0  0  0  0  0  0  0  0  0  0
   34.3848  104.4025   32.4519 H   0  0  0  0  0  0  0  0  0  0  0  0
   33.9823  102.7090   34.1848 H   0  0  0  0  0  0  0  0  0  0  0  0
  1  2  2  0  0  0  0
  2  3  1  0  0  0  0
  2  5  1  0  0  0  0
  3  4  2  0  0  0  0
  5  6  2  0  0  0  0
  5 23  1  0  0  0  0
  6  7  1  0  0  0  0
  6 24  1  0  0  0  0
  7  8  2  0  0  0  0
  7  9  1  0  0  0  0
  8 12  1  0  0  0  0
  8 25  1  0  0  0  0
  9 10  2  0  0  0  0
  9 26  1  0  0  0  0
 10 11  1  0  0  0  0
 10 27  1  0  0  0  0
 11 12  2  0  0  0  0
 11 28  1  0  0  0  0
 12 13  1  0  0  0  0
 13 14  2  0  0  0  0
 13 15  2  0  0  0  0
 13 16  1  0  0  0  0
 16 17  1  0  0  0  0
 16 29  1  0  0  0  0
 17 18  2  0  0  0  0
 17 22  1  0  0  0  0
 18 19  1  0  0  0  0
 18 30  1  0  0  0  0
 19 20  2  0  0  0  0
 19 31  1  0  0  0  0
 20 21  1  0  0  0  0
 20 32  1  0  0  0  0
 21 22  2  0  0  0  0
 21 33  1  0  0  0  0
 22 34  1  0  0  0  0
M  END
$$$$
