5OO
 OpenBabel04161910033D

 18 18  0  0  0  0  0  0  0  0999 V2000
   14.8059    1.2746   15.9435 O   0  0  0  0  0  0  0  0  0  0  0  0
   15.9553    0.9113   15.5705 C   0  0  0  0  0  0  0  0  0  0  0  0
   16.9590    2.0276   15.2849 C   0  0  0  0  0  0  0  0  0  0  0  0
   16.5043    3.2757   15.1076 C   0  0  0  0  0  0  0  0  0  0  0  0
   17.3308    4.4659   14.8732 C   0  0  0  0  0  0  0  0  0  0  0  0
   16.7892    5.7512   15.0011 C   0  0  0  0  0  0  0  0  0  0  0  0
   15.1329    6.0306   15.4470 Cl  0  0  0  0  0  0  0  0  0  0  0  0
   17.5795    6.8933   14.7864 C   0  0  0  0  0  0  0  0  0  0  0  0
   18.9135    6.7357   14.4354 C   0  0  0  0  0  0  0  0  0  0  0  0
   19.8880    8.1374   14.1690 Cl  0  0  0  0  0  0  0  0  0  0  0  0
   19.4766    5.4796   14.2938 C   0  0  0  0  0  0  0  0  0  0  0  0
   18.6841    4.3465   14.5138 C   0  0  0  0  0  0  0  0  0  0  0  0
   16.4183   -0.2500   15.4017 O   0  0  0  0  0  0  0  0  0  0  0  0
   18.0108    1.7822   15.2392 H   0  0  0  0  0  0  0  0  0  0  0  0
   15.4280    3.4226   15.1720 H   0  0  0  0  0  0  0  0  0  0  0  0
   17.1447    7.8744   14.8945 H   0  0  0  0  0  0  0  0  0  0  0  0
   20.5208    5.3517   14.0266 H   0  0  0  0  0  0  0  0  0  0  0  0
   19.1410    3.3694   14.3988 H   0  0  0  0  0  0  0  0  0  0  0  0
  1  2  2  0  0  0  0
  2  3  1  0  0  0  0
  2 13  1  0  0  0  0
  3  4  2  0  0  0  0
  3 14  1  0  0  0  0
  4  5  1  0  0  0  0
  4 15  1  0  0  0  0
  5  6  2  0  0  0  0
  5 12  1  0  0  0  0
  6  7  1  0  0  0  0
  6  8  1  0  0  0  0
  8  9  2  0  0  0  0
  8 16  1  0  0  0  0
  9 10  1  0  0  0  0
  9 11  1  0  0  0  0
 11 12  2  0  0  0  0
 11 17  1  0  0  0  0
 12 18  1  0  0  0  0
M  END
$$$$
