5R8
 OpenBabel04161910053D

 42 43  0  0  1  0  0  0  0  0999 V2000
   17.2449   72.9524   60.2826 C   0  0  0  0  0  0  0  0  0  0  0  0
   19.5841   72.1886   60.4461 C   0  0  0  0  0  0  0  0  0  0  0  0
   18.2926   72.3429   61.0903 N   0  0  0  0  0  0  0  0  0  0  0  0
   17.4499   74.4107   59.8155 C   0  0  0  0  0  0  0  0  0  0  0  0
   17.8657   75.3784   60.9015 N   0  3  2  0  0  0  0  0  0  0  0  0
   17.4260   75.0094   62.3106 C   0  0  0  0  0  0  0  0  0  0  0  0
   18.4725   74.0891   62.9260 C   0  0  0  0  0  0  0  0  0  0  0  0
   18.2924   72.6323   62.5153 C   0  0  0  0  0  0  0  0  0  0  0  0
   17.7244   76.8641   60.5948 C   0  0  0  0  0  0  0  0  0  0  0  0
   17.2560   77.3003   59.2338 C   0  0  0  0  0  0  0  0  0  0  0  0
   18.1742   77.6747   58.2349 C   0  0  0  0  0  0  0  0  0  0  0  0
   17.7291   78.0999   56.9739 C   0  0  0  0  0  0  0  0  0  0  0  0
   16.3567   78.1530   56.6786 C   0  0  0  0  0  0  0  0  0  0  0  0
   15.4413   77.7963   57.6778 C   0  0  0  0  0  0  0  0  0  0  0  0
   15.8886   77.3749   58.9375 C   0  0  0  0  0  0  0  0  0  0  0  0
   15.8707   78.5843   55.3173 C   0  0  0  0  0  0  0  0  0  0  0  0
   16.0882   80.0305   55.0723 N   0  3  0  0  0  0  0  0  0  0  0  0
   16.2872   72.8769   60.8138 H   0  0  0  0  0  0  0  0  0  0  0  0
   17.0974   72.3421   59.3817 H   0  0  0  0  0  0  0  0  0  0  0  0
   20.3095   71.7019   61.1064 H   0  0  0  0  0  0  0  0  0  0  0  0
   20.0041   73.1464   60.1274 H   0  0  0  0  0  0  0  0  0  0  0  0
   19.4929   71.5434   59.5633 H   0  0  0  0  0  0  0  0  0  0  0  0
   16.5207   74.7664   59.3672 H   0  0  0  0  0  0  0  0  0  0  0  0
   18.2534   74.4492   59.0713 H   0  0  0  0  0  0  0  0  0  0  0  0
   16.4253   74.5643   62.2727 H   0  0  0  0  0  0  0  0  0  0  0  0
   17.3652   75.9287   62.9029 H   0  0  0  0  0  0  0  0  0  0  0  0
   18.3840   74.1520   64.0182 H   0  0  0  0  0  0  0  0  0  0  0  0
   19.4876   74.4272   62.6851 H   0  0  0  0  0  0  0  0  0  0  0  0
   19.0658   72.0354   63.0145 H   0  0  0  0  0  0  0  0  0  0  0  0
   17.3455   72.2729   62.9383 H   0  0  0  0  0  0  0  0  0  0  0  0
   18.7269   77.2814   60.7852 H   0  0  0  0  0  0  0  0  0  0  0  0
   17.0711   77.3134   61.3539 H   0  0  0  0  0  0  0  0  0  0  0  0
   19.2482   77.6579   58.4300 H   0  0  0  0  0  0  0  0  0  0  0  0
   18.4761   78.3685   56.2249 H   0  0  0  0  0  0  0  0  0  0  0  0
   14.3664   77.8249   57.4826 H   0  0  0  0  0  0  0  0  0  0  0  0
   15.1411   77.1108   59.6905 H   0  0  0  0  0  0  0  0  0  0  0  0
   14.7938   78.4115   55.2081 H   0  0  0  0  0  0  0  0  0  0  0  0
   16.3889   78.0319   54.5268 H   0  0  0  0  0  0  0  0  0  0  0  0
   15.7425   80.3005   54.1429 H   0  0  0  0  0  0  0  0  0  0  0  0
   15.5987   80.6005   55.7701 H   0  0  0  0  0  0  0  0  0  0  0  0
   18.8831   75.2427   60.9261 H   0  0  0  0  0  0  0  0  0  0  0  0
   17.0858   80.2697   55.1172 H   0  0  0  0  0  0  0  0  0  0  0  0
  1  3  1  0  0  0  0
  1  4  1  0  0  0  0
  1 18  1  0  0  0  0
  1 19  1  0  0  0  0
  2  3  1  0  0  0  0
  2 20  1  0  0  0  0
  2 21  1  0  0  0  0
  2 22  1  0  0  0  0
  3  8  1  0  0  0  0
  4  5  1  0  0  0  0
  4 23  1  0  0  0  0
  4 24  1  0  0  0  0
  5  6  1  0  0  0  0
  5  9  1  0  0  0  0
  5 41  1  1  0  0  0
  6  7  1  0  0  0  0
  6 25  1  0  0  0  0
  6 26  1  0  0  0  0
  7  8  1  0  0  0  0
  7 27  1  0  0  0  0
  7 28  1  0  0  0  0
  8 29  1  0  0  0  0
  8 30  1  0  0  0  0
  9 10  1  0  0  0  0
  9 31  1  0  0  0  0
  9 32  1  0  0  0  0
 10 11  2  0  0  0  0
 10 15  1  0  0  0  0
 11 12  1  0  0  0  0
 11 33  1  0  0  0  0
 12 13  2  0  0  0  0
 12 34  1  0  0  0  0
 13 14  1  0  0  0  0
 13 16  1  0  0  0  0
 14 15  2  0  0  0  0
 14 35  1  0  0  0  0
 15 36  1  0  0  0  0
 16 17  1  0  0  0  0
 16 37  1  0  0  0  0
 16 38  1  0  0  0  0
 17 39  1  0  0  0  0
 17 40  1  0  0  0  0
 17 42  1  0  0  0  0
M  CHG  2   5   1  17   1
M  END
$$$$
