5T0
 OpenBabel04161910103D

 52 54  0  0  0  0  0  0  0  0999 V2000
    3.9042   28.5223    4.2643 C   0  0  0  0  0  0  0  0  0  0  0  0
    5.2776   28.3909    4.0375 C   0  0  0  0  0  0  0  0  0  0  0  0
    3.0983   27.3886    4.4163 C   0  0  0  0  0  0  0  0  0  0  0  0
    5.0804   26.0136    4.1382 C   0  0  0  0  0  0  0  0  0  0  0  0
    3.7035   26.1292    4.3653 C   0  0  0  0  0  0  0  0  0  0  0  0
    9.0587   26.0259    2.2973 C   0  0  0  0  0  0  0  0  0  0  0  0
    8.2096   27.7907    4.4559 C   0  0  0  0  0  0  0  0  0  0  0  0
    7.7375   25.8147    3.0186 C   0  0  0  0  0  0  0  0  0  0  0  0
    7.2498   27.0567    3.6195 N   0  0  0  0  0  0  0  0  0  0  0  0
    5.8983   27.1385    3.9578 C   0  0  0  0  0  0  0  0  0  0  0  0
    9.4493   28.1321    3.6253 C   0  0  0  0  0  0  0  0  0  0  0  0
   16.3174   29.7674    2.7798 C   0  0  0  0  0  0  0  0  0  0  0  0
   16.5827   29.8232    1.3948 C   0  0  0  0  0  0  0  0  0  0  0  0
   15.5659   29.1522    0.7622 C   0  0  0  0  0  0  0  0  0  0  0  0
   13.4394   28.0560    1.3961 C   0  0  0  0  0  0  0  0  0  0  0  0
   12.4924   27.8298    2.5581 C   0  0  0  0  0  0  0  0  0  0  0  0
   11.2132   27.1931    2.0265 C   0  0  0  0  0  0  0  0  0  0  0  0
   10.1036   26.8710    3.0466 C   0  0  0  0  0  0  0  0  0  0  0  0
   13.2248   27.7299    0.2287 O   0  0  0  0  0  0  0  0  0  0  0  0
   14.6372   28.7257    1.7005 N   0  3  0  0  0  0  0  0  0  0  0  0
   15.1226   29.1023    2.9426 C   0  0  0  0  0  0  0  0  0  0  0  0
    1.6248   27.5340    4.6601 C   0  0  0  0  0  0  0  0  0  0  0  0
    1.3002   27.5162    6.1161 N   0  3  0  0  0  0  0  0  0  0  0  0
    0.9179   26.1969    6.6741 C   0  0  0  0  0  0  0  0  0  0  0  0
    3.4813   29.5253    4.2773 H   0  0  0  0  0  0  0  0  0  0  0  0
    5.8621   29.2915    3.8536 H   0  0  0  0  0  0  0  0  0  0  0  0
    5.5031   25.0124    4.0981 H   0  0  0  0  0  0  0  0  0  0  0  0
    3.1215   25.2166    4.4744 H   0  0  0  0  0  0  0  0  0  0  0  0
    8.8439   26.5081    1.3330 H   0  0  0  0  0  0  0  0  0  0  0  0
    9.4903   25.0445    2.0570 H   0  0  0  0  0  0  0  0  0  0  0  0
    8.4855   27.1895    5.3322 H   0  0  0  0  0  0  0  0  0  0  0  0
    7.7932   28.7310    4.8369 H   0  0  0  0  0  0  0  0  0  0  0  0
    7.8333   25.0221    3.7669 H   0  0  0  0  0  0  0  0  0  0  0  0
    7.0242   25.4728    2.2546 H   0  0  0  0  0  0  0  0  0  0  0  0
   10.1637   28.6830    4.2480 H   0  0  0  0  0  0  0  0  0  0  0  0
    9.1532   28.8025    2.8084 H   0  0  0  0  0  0  0  0  0  0  0  0
   16.9290   30.1740    3.5720 H   0  0  0  0  0  0  0  0  0  0  0  0
   17.4298   30.2916    0.9075 H   0  0  0  0  0  0  0  0  0  0  0  0
   15.3955   28.9539   -0.2911 H   0  0  0  0  0  0  0  0  0  0  0  0
   12.2653   28.7931    3.0266 H   0  0  0  0  0  0  0  0  0  0  0  0
   12.9644   27.1640    3.2892 H   0  0  0  0  0  0  0  0  0  0  0  0
   11.4881   26.2584    1.5158 H   0  0  0  0  0  0  0  0  0  0  0  0
   10.7915   27.8465    1.2487 H   0  0  0  0  0  0  0  0  0  0  0  0
   10.5219   26.2773    3.8714 H   0  0  0  0  0  0  0  0  0  0  0  0
   14.5856   28.8637    3.8500 H   0  0  0  0  0  0  0  0  0  0  0  0
    1.0439   26.7529    4.1577 H   0  0  0  0  0  0  0  0  0  0  0  0
    1.2730   28.4984    4.2781 H   0  0  0  0  0  0  0  0  0  0  0  0
    2.1177   27.8796    6.6290 H   0  0  0  0  0  0  0  0  0  0  0  0
    0.7203   26.3389    7.7398 H   0  0  0  0  0  0  0  0  0  0  0  0
    1.7448   25.4982    6.5325 H   0  0  0  0  0  0  0  0  0  0  0  0
    0.0148   25.8560    6.1630 H   0  0  0  0  0  0  0  0  0  0  0  0
    0.5388   28.1866    6.2929 H   0  0  0  0  0  0  0  0  0  0  0  0
  1  2  2  0  0  0  0
  1  3  1  0  0  0  0
  1 25  1  0  0  0  0
  2 10  1  0  0  0  0
  2 26  1  0  0  0  0
  3  5  2  0  0  0  0
  3 22  1  0  0  0  0
  4  5  1  0  0  0  0
  4 10  2  0  0  0  0
  4 27  1  0  0  0  0
  5 28  1  0  0  0  0
  6  8  1  0  0  0  0
  6 18  1  0  0  0  0
  6 29  1  0  0  0  0
  6 30  1  0  0  0  0
  7  9  1  0  0  0  0
  7 11  1  0  0  0  0
  7 31  1  0  0  0  0
  7 32  1  0  0  0  0
  8  9  1  0  0  0  0
  8 33  1  0  0  0  0
  8 34  1  0  0  0  0
  9 10  1  0  0  0  0
 11 18  1  0  0  0  0
 11 35  1  0  0  0  0
 11 36  1  0  0  0  0
 12 13  1  0  0  0  0
 12 21  2  0  0  0  0
 12 37  1  0  0  0  0
 13 14  2  0  0  0  0
 13 38  1  0  0  0  0
 14 20  1  0  0  0  0
 14 39  1  0  0  0  0
 15 16  1  0  0  0  0
 15 19  2  0  0  0  0
 15 20  1  0  0  0  0
 16 17  1  0  0  0  0
 16 40  1  0  0  0  0
 16 41  1  0  0  0  0
 17 18  1  0  0  0  0
 17 42  1  0  0  0  0
 17 43  1  0  0  0  0
 18 44  1  0  0  0  0
 20 21  1  0  0  0  0
 21 45  1  0  0  0  0
 22 23  1  0  0  0  0
 22 46  1  0  0  0  0
 22 47  1  0  0  0  0
 23 24  1  0  0  0  0
 23 48  1  0  0  0  0
 23 52  1  0  0  0  0
 24 49  1  0  0  0  0
 24 50  1  0  0  0  0
 24 51  1  0  0  0  0
M  CHG  2  20   1  23   1
M  END
$$$$
