5TU
 OpenBabel04161910123D

 32 33  0  0  0  0  0  0  0  0999 V2000
    3.8715   -4.4172    3.3355 N   0  0  0  0  0  0  0  0  0  0  0  0
   12.3303   -5.3626    4.8945 C   0  0  0  0  0  0  0  0  0  0  0  0
   13.0785   -6.6520    4.9832 C   0  0  0  0  0  0  0  0  0  0  0  0
   13.0997   -4.0785    4.8919 C   0  0  0  0  0  0  0  0  0  0  0  0
    8.7591   -4.0883    4.6165 C   0  0  0  0  0  0  0  0  0  0  0  0
    7.9886   -3.0861    5.2278 C   0  0  0  0  0  0  0  0  0  0  0  0
    5.9525   -4.1891    4.5397 C   0  0  0  0  0  0  0  0  0  0  0  0
    4.4725   -4.2346    4.5477 C   0  0  0  0  0  0  0  0  0  0  0  0
    3.8337   -4.0889    5.5799 O   0  0  0  0  0  0  0  0  0  0  0  0
    6.5935   -3.1332    5.1907 C   0  0  0  0  0  0  0  0  0  0  0  0
    6.6890   -5.1960    3.9300 C   0  0  0  0  0  0  0  0  0  0  0  0
    8.0843   -5.1403    3.9673 C   0  0  0  0  0  0  0  0  0  0  0  0
   10.2458   -4.0924    4.7062 C   0  0  0  0  0  0  0  0  0  0  0  0
   10.9486   -2.9382    4.6948 C   0  0  0  0  0  0  0  0  0  0  0  0
   10.9941   -5.3263    4.8188 C   0  0  0  0  0  0  0  0  0  0  0  0
   14.3237   -4.0976    4.9811 O   0  0  0  0  0  0  0  0  0  0  0  0
   12.3330   -2.9143    4.7960 N   0  3  0  0  0  0  0  0  0  0  0  0
   13.0006   -1.6179    4.8040 C   0  0  0  0  0  0  0  0  0  0  0  0
    2.8608   -4.3774    3.3102 H   0  0  0  0  0  0  0  0  0  0  0  0
    4.3786   -4.3937    2.4618 H   0  0  0  0  0  0  0  0  0  0  0  0
   12.3954   -7.5099    4.9624 H   0  0  0  0  0  0  0  0  0  0  0  0
   13.6454   -6.7091    5.9170 H   0  0  0  0  0  0  0  0  0  0  0  0
   13.7626   -6.7631    4.1377 H   0  0  0  0  0  0  0  0  0  0  0  0
    8.4628   -2.2697    5.7677 H   0  0  0  0  0  0  0  0  0  0  0  0
    6.0106   -2.3550    5.6786 H   0  0  0  0  0  0  0  0  0  0  0  0
    6.1924   -6.0434    3.4627 H   0  0  0  0  0  0  0  0  0  0  0  0
    8.6372   -5.9513    3.4953 H   0  0  0  0  0  0  0  0  0  0  0  0
   10.4709   -1.9666    4.6058 H   0  0  0  0  0  0  0  0  0  0  0  0
   10.4359   -6.2562    4.8510 H   0  0  0  0  0  0  0  0  0  0  0  0
   14.0859   -1.7156    4.8927 H   0  0  0  0  0  0  0  0  0  0  0  0
   12.6343   -1.0310    5.6530 H   0  0  0  0  0  0  0  0  0  0  0  0
   12.7721   -1.0880    3.8733 H   0  0  0  0  0  0  0  0  0  0  0  0
  1  8  1  0  0  0  0
  1 19  1  0  0  0  0
  1 20  1  0  0  0  0
  2  3  1  0  0  0  0
  2  4  1  0  0  0  0
  2 15  2  0  0  0  0
  3 21  1  0  0  0  0
  3 22  1  0  0  0  0
  3 23  1  0  0  0  0
  4 16  2  0  0  0  0
  4 17  1  0  0  0  0
  5  6  2  0  0  0  0
  5 12  1  0  0  0  0
  5 13  1  0  0  0  0
  6 10  1  0  0  0  0
  6 24  1  0  0  0  0
  7  8  1  0  0  0  0
  7 10  2  0  0  0  0
  7 11  1  0  0  0  0
  8  9  2  0  0  0  0
 10 25  1  0  0  0  0
 11 12  2  0  0  0  0
 11 26  1  0  0  0  0
 12 27  1  0  0  0  0
 13 14  2  0  0  0  0
 13 15  1  0  0  0  0
 14 17  1  0  0  0  0
 14 28  1  0  0  0  0
 15 29  1  0  0  0  0
 17 18  1  0  0  0  0
 18 30  1  0  0  0  0
 18 31  1  0  0  0  0
 18 32  1  0  0  0  0
M  CHG  1  17   1
M  END
$$$$
