5VN
 OpenBabel04161910133D

 82 86  0  0  1  0  0  0  0  0999 V2000
   38.6816   -9.7025   40.0012 C   0  0  0  0  0  0  0  0  0  0  0  0
   37.6416  -10.0246   41.0401 C   0  0  1  0  0  0  0  0  0  0  0  0
   37.8274  -11.5170   41.2443 C   0  0  0  0  0  0  0  0  0  0  0  0
   39.1004  -11.8499   42.0504 C   0  0  1  0  0  0  0  0  0  0  0  0
   40.3569  -11.5816   41.4253 O   0  0  0  0  0  0  0  0  0  0  0  0
   38.9582  -11.1801   43.4196 C   0  0  1  0  0  0  0  0  0  0  0  0
   37.5584  -11.7691   43.8096 C   0  0  0  0  0  0  0  0  0  0  0  0
   36.6481  -10.9258   44.0826 O   0  0  0  0  0  0  0  0  0  0  0  0
   37.4156  -13.0205   43.6181 O   0  0  0  0  0  0  0  0  0  0  0  0
   40.0010  -11.6165   44.4308 C   0  0  0  0  0  0  0  0  0  0  0  0
   41.3319  -10.8819   44.2628 C   0  0  0  0  0  0  0  0  0  0  0  0
   41.1400   -9.3638   44.3037 C   0  0  0  0  0  0  0  0  0  0  0  0
   40.5436   -8.9332   45.6413 C   0  0  0  0  0  0  0  0  0  0  0  0
   42.4649   -8.6353   44.2011 C   0  0  0  0  0  0  0  0  0  0  0  0
   40.2032   -8.9771   43.1607 C   0  0  0  0  0  0  0  0  0  0  0  0
   38.8501   -9.6665   43.3329 C   0  0  1  0  0  0  0  0  0  0  0  0
   37.8922   -9.1783   42.3054 C   0  0  0  0  0  0  0  0  0  0  0  0
   37.2193   -8.0527   42.5909 C   0  0  0  0  0  0  0  0  0  0  0  0
   36.2247   -7.5135   41.6702 C   0  0  0  0  0  0  0  0  0  0  0  0
   36.4548   -8.1143   40.3049 C   0  0  1  0  0  0  0  0  0  0  0  0
   36.3058   -9.6521   40.3191 C   0  0  2  0  0  0  0  0  0  0  0  0
   35.0712  -10.1460   41.1104 C   0  0  0  0  0  0  0  0  0  0  0  0
   36.2179  -10.2836   38.9112 C   0  0  0  0  0  0  0  0  0  0  0  0
   35.5511   -9.4612   37.8716 C   0  0  0  0  0  0  0  0  0  0  0  0
   36.1364   -8.0515   37.8576 C   0  0  2  0  0  0  0  0  0  0  0  0
   35.8332   -7.3560   39.1880 C   0  0  1  0  0  0  0  0  0  0  0  0
   34.3951   -7.2144   39.6299 C   0  0  0  0  0  0  0  0  0  0  0  0
   36.4567   -5.9486   39.1425 C   0  0  0  0  0  0  0  0  0  0  0  0
   35.8054   -5.1697   38.0528 C   0  0  0  0  0  0  0  0  0  0  0  0
   36.2024   -5.7910   36.7332 C   0  0  2  0  0  0  0  0  0  0  0  0
   35.6155   -4.9487   35.7164 O   0  0  0  0  0  0  0  0  0  0  0  0
   35.6884   -7.2329   36.6251 C   0  0  2  0  0  0  0  0  0  0  0  0
   34.1817   -7.2429   36.4495 C   0  0  0  0  0  0  0  0  0  0  0  0
   36.3171   -7.8513   35.3686 C   0  0  0  0  0  0  0  0  0  0  0  0
   35.8817   -7.1388   34.2100 O   0  0  0  0  0  0  0  0  0  0  0  0
   39.6341   -9.8689   40.2819 H   0  0  0  0  0  0  0  0  0  0  0  0
   38.7445   -8.7128   39.6345 H   0  0  0  0  0  0  0  0  0  0  0  0
   38.6524  -10.3126   39.1213 H   0  0  0  0  0  0  0  0  0  0  0  0
   37.8318  -12.0182   40.2909 H   0  0  0  0  0  0  0  0  0  0  0  0
   36.9261  -11.8482   41.7542 H   0  0  0  0  0  0  0  0  0  0  0  0
   39.1428  -12.9292   42.1781 H   0  0  0  0  0  0  0  0  0  0  0  0
   40.4729  -10.6308   41.3258 H   0  0  0  0  0  0  0  0  0  0  0  0
   40.1731  -12.6899   44.3630 H   0  0  0  0  0  0  0  0  0  0  0  0
   39.6105  -11.4090   45.4343 H   0  0  0  0  0  0  0  0  0  0  0  0
   41.7824  -11.1602   43.3031 H   0  0  0  0  0  0  0  0  0  0  0  0
   42.0208  -11.1834   45.0547 H   0  0  0  0  0  0  0  0  0  0  0  0
   40.4006   -7.8511   45.6492 H   0  0  0  0  0  0  0  0  0  0  0  0
   41.2159   -9.2206   46.4485 H   0  0  0  0  0  0  0  0  0  0  0  0
   39.5870   -9.4067   45.8206 H   0  0  0  0  0  0  0  0  0  0  0  0
   42.9641   -8.8807   43.2703 H   0  0  0  0  0  0  0  0  0  0  0  0
   43.1025   -8.9223   45.0454 H   0  0  0  0  0  0  0  0  0  0  0  0
   42.2952   -7.5526   44.2507 H   0  0  0  0  0  0  0  0  0  0  0  0
   40.6735   -9.2513   42.2254 H   0  0  0  0  0  0  0  0  0  0  0  0
   40.0831   -7.8924   43.1256 H   0  0  0  0  0  0  0  0  0  0  0  0
   38.4606   -9.3387   44.3046 H   0  0  0  0  0  0  0  0  0  0  0  0
   37.4269   -7.5164   43.4992 H   0  0  0  0  0  0  0  0  0  0  0  0
   36.2907   -6.4289   41.6325 H   0  0  0  0  0  0  0  0  0  0  0  0
   35.2151   -7.7711   41.9739 H   0  0  0  0  0  0  0  0  0  0  0  0
   37.4941   -7.8218   40.1579 H   0  0  0  0  0  0  0  0  0  0  0  0
   34.9906  -11.2413   41.0896 H   0  0  0  0  0  0  0  0  0  0  0  0
   34.1453   -9.7609   40.6908 H   0  0  0  0  0  0  0  0  0  0  0  0
   35.1074   -9.8492   42.1636 H   0  0  0  0  0  0  0  0  0  0  0  0
   35.8555  -11.3038   38.9400 H   0  0  0  0  0  0  0  0  0  0  0  0
   37.1894  -10.4309   38.4340 H   0  0  0  0  0  0  0  0  0  0  0  0
   34.4965   -9.4378   38.1019 H   0  0  0  0  0  0  0  0  0  0  0  0
   35.6692   -9.9338   36.8860 H   0  0  0  0  0  0  0  0  0  0  0  0
   37.2363   -8.1501   37.7714 H   0  0  0  0  0  0  0  0  0  0  0  0
   34.3194   -6.6804   40.5808 H   0  0  0  0  0  0  0  0  0  0  0  0
   33.9263   -8.1696   39.7247 H   0  0  0  0  0  0  0  0  0  0  0  0
   33.8225   -6.6294   38.9703 H   0  0  0  0  0  0  0  0  0  0  0  0
   37.5349   -6.0372   38.9595 H   0  0  0  0  0  0  0  0  0  0  0  0
   36.3100   -5.4310   40.0822 H   0  0  0  0  0  0  0  0  0  0  0  0
   36.0995   -4.1266   38.0896 H   0  0  0  0  0  0  0  0  0  0  0  0
   34.7148   -5.1784   38.1482 H   0  0  0  0  0  0  0  0  0  0  0  0
   37.2890   -5.7634   36.6484 H   0  0  0  0  0  0  0  0  0  0  0  0
   35.8054   -5.1897   34.9093 H   0  0  0  0  0  0  0  0  0  0  0  0
   33.8111   -8.2557   36.3837 H   0  0  0  0  0  0  0  0  0  0  0  0
   33.8934   -6.6916   35.5619 H   0  0  0  0  0  0  0  0  0  0  0  0
   33.6874   -6.7560   37.2596 H   0  0  0  0  0  0  0  0  0  0  0  0
   35.9826   -8.8575   35.2589 H   0  0  0  0  0  0  0  0  0  0  0  0
   37.4028   -7.8087   35.4501 H   0  0  0  0  0  0  0  0  0  0  0  0
   36.3499   -6.3458   34.1713 H   0  0  0  0  0  0  0  0  0  0  0  0
  1 36  1  0  0  0  0
  1 37  1  0  0  0  0
  1 38  1  0  0  0  0
  2  1  1  6  0  0  0
  2  3  1  0  0  0  0
  2 17  1  0  0  0  0
  2 21  1  0  0  0  0
  3  4  1  0  0  0  0
  3 39  1  0  0  0  0
  3 40  1  0  0  0  0
  4  5  1  0  0  0  0
  4  6  1  0  0  0  0
  4 41  1  1  0  0  0
  5 42  1  0  0  0  0
  6  7  1  1  0  0  0
  6 10  1  0  0  0  0
  6 16  1  0  0  0  0
  7  8  2  0  0  0  0
  7  9  1  0  0  0  0
 10 11  1  0  0  0  0
 10 43  1  0  0  0  0
 10 44  1  0  0  0  0
 11 12  1  0  0  0  0
 11 45  1  0  0  0  0
 11 46  1  0  0  0  0
 12 13  1  0  0  0  0
 12 14  1  0  0  0  0
 12 15  1  0  0  0  0
 13 47  1  0  0  0  0
 13 48  1  0  0  0  0
 13 49  1  0  0  0  0
 14 50  1  0  0  0  0
 14 51  1  0  0  0  0
 14 52  1  0  0  0  0
 15 16  1  0  0  0  0
 15 53  1  0  0  0  0
 15 54  1  0  0  0  0
 16 17  1  0  0  0  0
 16 55  1  1  0  0  0
 17 18  2  0  0  0  0
 18 19  1  0  0  0  0
 18 56  1  0  0  0  0
 19 20  1  0  0  0  0
 19 57  1  0  0  0  0
 19 58  1  0  0  0  0
 20 21  1  0  0  0  0
 20 26  1  0  0  0  0
 20 59  1  6  0  0  0
 21 22  1  1  0  0  0
 21 23  1  0  0  0  0
 22 60  1  0  0  0  0
 22 61  1  0  0  0  0
 22 62  1  0  0  0  0
 23 24  1  0  0  0  0
 23 63  1  0  0  0  0
 23 64  1  0  0  0  0
 24 25  1  0  0  0  0
 24 65  1  0  0  0  0
 24 66  1  0  0  0  0
 25 26  1  0  0  0  0
 25 32  1  0  0  0  0
 25 67  1  6  0  0  0
 26 27  1  1  0  0  0
 26 28  1  0  0  0  0
 27 68  1  0  0  0  0
 27 69  1  0  0  0  0
 27 70  1  0  0  0  0
 28 29  1  0  0  0  0
 28 71  1  0  0  0  0
 28 72  1  0  0  0  0
 29 30  1  0  0  0  0
 29 73  1  0  0  0  0
 29 74  1  0  0  0  0
 30 31  1  0  0  0  0
 30 32  1  0  0  0  0
 30 75  1  6  0  0  0
 31 76  1  0  0  0  0
 32 33  1  6  0  0  0
 32 34  1  0  0  0  0
 33 77  1  0  0  0  0
 33 78  1  0  0  0  0
 33 79  1  0  0  0  0
 34 35  1  0  0  0  0
 34 80  1  0  0  0  0
 34 81  1  0  0  0  0
 35 82  1  0  0  0  0
M  END
$$$$
