5VY
 OpenBabel04161910123D

 72 75  0  0  0  0  0  0  0  0999 V2000
   63.6057   81.4047   81.5218 C   0  0  0  0  0  0  0  0  0  0  0  0
   61.8139   84.7211   81.8578 C   0  0  0  0  0  0  0  0  0  0  0  0
   61.5099   86.0850   83.9447 C   0  0  0  0  0  0  0  0  0  0  0  0
   63.9722   83.1958   83.1226 C   0  0  0  0  0  0  0  0  0  0  0  0
   62.9739   76.3301   77.2346 C   0  0  0  0  0  0  0  0  0  0  0  0
   59.7946   77.9960   76.4024 C   0  0  0  0  0  0  0  0  0  0  0  0
   57.0856   78.8033   73.5714 C   0  0  0  0  0  0  0  0  0  0  0  0
   63.3461   74.3092   75.7283 C   0  0  0  0  0  0  0  0  0  0  0  0
   63.7863   75.3323   76.7308 C   0  0  0  0  0  0  0  0  0  0  0  0
   65.0745   75.3076   77.2089 C   0  0  0  0  0  0  0  0  0  0  0  0
   65.5718   76.2055   78.1089 N   0  0  0  0  0  0  0  0  0  0  0  0
   64.7361   77.1457   78.5507 C   0  0  0  0  0  0  0  0  0  0  0  0
   65.2315   78.0508   79.5050 N   0  0  0  0  0  0  0  0  0  0  0  0
   64.6289   79.1461   80.1353 C   0  0  0  0  0  0  0  0  0  0  0  0
   63.3549   79.6256   79.8855 C   0  0  0  0  0  0  0  0  0  0  0  0
   62.8478   80.7313   80.5521 C   0  0  0  0  0  0  0  0  0  0  0  0
   63.0534   82.5311   82.2011 N   0  0  0  0  0  0  0  0  0  0  0  0
   62.2563   83.3681   81.2943 C   0  0  0  0  0  0  0  0  0  0  0  0
   62.0360   84.8255   83.3445 N   0  3  0  0  0  0  0  0  0  0  0  0
   63.4374   84.4745   83.7798 C   0  0  0  0  0  0  0  0  0  0  0  0
   64.8890   80.9099   81.7931 C   0  0  0  0  0  0  0  0  0  0  0  0
   65.3977   79.8008   81.1079 C   0  0  0  0  0  0  0  0  0  0  0  0
   63.4647   77.2221   78.1336 N   0  0  0  0  0  0  0  0  0  0  0  0
   61.6424   76.4533   76.7919 N   0  0  0  0  0  0  0  0  0  0  0  0
   60.6769   77.3478   77.2824 C   0  0  0  0  0  0  0  0  0  0  0  0
   58.8850   78.9189   76.9002 C   0  0  0  0  0  0  0  0  0  0  0  0
   57.9414   79.5780   76.0576 N   0  0  0  0  0  0  0  0  0  0  0  0
   58.1889   79.9954   74.4624 S   0  0  0  0  0  0  0  0  0  0  0  0
   57.6129   77.3701   73.7509 C   0  0  0  0  0  0  0  0  0  0  0  0
   55.6438   78.9274   74.1227 C   0  0  0  0  0  0  0  0  0  0  0  0
   57.1583   79.2655   72.1075 C   0  0  0  0  0  0  0  0  0  0  0  0
   59.5576   79.7871   74.0476 O   0  0  0  0  0  0  0  0  0  0  0  0
   57.5853   81.3079   74.2890 O   0  0  0  0  0  0  0  0  0  0  0  0
   58.8080   79.1926   78.2708 C   0  0  0  0  0  0  0  0  0  0  0  0
   59.6853   78.5646   79.1489 C   0  0  0  0  0  0  0  0  0  0  0  0
   60.6135   77.6643   78.6397 C   0  0  0  0  0  0  0  0  0  0  0  0
   60.7398   84.8551   81.6825 H   0  0  0  0  0  0  0  0  0  0  0  0
   62.3621   85.5308   81.3673 H   0  0  0  0  0  0  0  0  0  0  0  0
   61.7303   86.0694   85.0138 H   0  0  0  0  0  0  0  0  0  0  0  0
   60.4294   86.1013   83.7858 H   0  0  0  0  0  0  0  0  0  0  0  0
   61.9882   86.9395   83.4605 H   0  0  0  0  0  0  0  0  0  0  0  0
   64.8923   83.4615   82.5918 H   0  0  0  0  0  0  0  0  0  0  0  0
   64.2067   82.4843   83.9234 H   0  0  0  0  0  0  0  0  0  0  0  0
   59.8335   77.7812   75.3478 H   0  0  0  0  0  0  0  0  0  0  0  0
   64.1668   73.6232   75.4998 H   0  0  0  0  0  0  0  0  0  0  0  0
   63.0396   74.7999   74.7995 H   0  0  0  0  0  0  0  0  0  0  0  0
   62.5101   73.7255   76.1254 H   0  0  0  0  0  0  0  0  0  0  0  0
   65.7746   74.5472   76.8880 H   0  0  0  0  0  0  0  0  0  0  0  0
   66.1820   77.8599   79.7477 H   0  0  0  0  0  0  0  0  0  0  0  0
   62.7182   79.1431   79.1308 H   0  0  0  0  0  0  0  0  0  0  0  0
   61.8503   81.0689   80.3022 H   0  0  0  0  0  0  0  0  0  0  0  0
   62.8266   83.5593   80.3788 H   0  0  0  0  0  0  0  0  0  0  0  0
   61.3434   82.8181   81.0466 H   0  0  0  0  0  0  0  0  0  0  0  0
   64.0924   85.3183   83.5423 H   0  0  0  0  0  0  0  0  0  0  0  0
   63.4064   84.3403   84.8674 H   0  0  0  0  0  0  0  0  0  0  0  0
   65.5378   81.3871   82.5159 H   0  0  0  0  0  0  0  0  0  0  0  0
   66.3945   79.4391   81.3304 H   0  0  0  0  0  0  0  0  0  0  0  0
   61.3201   75.7913   76.1135 H   0  0  0  0  0  0  0  0  0  0  0  0
   57.0829   79.8786   76.5107 H   0  0  0  0  0  0  0  0  0  0  0  0
   56.9947   76.6246   73.2363 H   0  0  0  0  0  0  0  0  0  0  0  0
   57.6389   77.0945   74.8130 H   0  0  0  0  0  0  0  0  0  0  0  0
   58.6341   77.2859   73.3595 H   0  0  0  0  0  0  0  0  0  0  0  0
   54.9401   78.2538   73.6154 H   0  0  0  0  0  0  0  0  0  0  0  0
   55.2643   79.9522   74.0042 H   0  0  0  0  0  0  0  0  0  0  0  0
   55.6094   78.6885   75.1951 H   0  0  0  0  0  0  0  0  0  0  0  0
   56.5388   78.6613   71.4405 H   0  0  0  0  0  0  0  0  0  0  0  0
   58.1978   79.2226   71.7581 H   0  0  0  0  0  0  0  0  0  0  0  0
   56.8336   80.3126   72.0261 H   0  0  0  0  0  0  0  0  0  0  0  0
   58.0893   79.9106   78.6588 H   0  0  0  0  0  0  0  0  0  0  0  0
   59.6558   78.7622   80.2107 H   0  0  0  0  0  0  0  0  0  0  0  0
   61.3071   77.1659   79.3213 H   0  0  0  0  0  0  0  0  0  0  0  0
   61.4662   84.0608   83.7323 H   0  0  0  0  0  0  0  0  0  0  0  0
  1 16  2  0  0  0  0
  1 17  1  0  0  0  0
  1 21  1  0  0  0  0
  2 18  1  0  0  0  0
  2 19  1  0  0  0  0
  2 37  1  0  0  0  0
  2 38  1  0  0  0  0
  3 19  1  0  0  0  0
  3 39  1  0  0  0  0
  3 40  1  0  0  0  0
  3 41  1  0  0  0  0
  4 17  1  0  0  0  0
  4 20  1  0  0  0  0
  4 42  1  0  0  0  0
  4 43  1  0  0  0  0
  5  9  2  0  0  0  0
  5 23  1  0  0  0  0
  5 24  1  0  0  0  0
  6 25  2  0  0  0  0
  6 26  1  0  0  0  0
  6 44  1  0  0  0  0
  7 28  1  0  0  0  0
  7 29  1  0  0  0  0
  7 30  1  0  0  0  0
  7 31  1  0  0  0  0
  8  9  1  0  0  0  0
  8 45  1  0  0  0  0
  8 46  1  0  0  0  0
  8 47  1  0  0  0  0
  9 10  1  0  0  0  0
 10 11  2  0  0  0  0
 10 48  1  0  0  0  0
 11 12  1  0  0  0  0
 12 13  1  0  0  0  0
 12 23  2  0  0  0  0
 13 14  1  0  0  0  0
 13 49  1  0  0  0  0
 14 15  2  0  0  0  0
 14 22  1  0  0  0  0
 15 16  1  0  0  0  0
 15 50  1  0  0  0  0
 16 51  1  0  0  0  0
 17 18  1  0  0  0  0
 18 52  1  0  0  0  0
 18 53  1  0  0  0  0
 19 20  1  0  0  0  0
 19 72  1  0  0  0  0
 20 54  1  0  0  0  0
 20 55  1  0  0  0  0
 21 22  2  0  0  0  0
 21 56  1  0  0  0  0
 22 57  1  0  0  0  0
 24 25  1  0  0  0  0
 24 58  1  0  0  0  0
 25 36  1  0  0  0  0
 26 27  1  0  0  0  0
 26 34  2  0  0  0  0
 27 28  1  0  0  0  0
 27 59  1  0  0  0  0
 28 32  2  0  0  0  0
 28 33  2  0  0  0  0
 29 60  1  0  0  0  0
 29 61  1  0  0  0  0
 29 62  1  0  0  0  0
 30 63  1  0  0  0  0
 30 64  1  0  0  0  0
 30 65  1  0  0  0  0
 31 66  1  0  0  0  0
 31 67  1  0  0  0  0
 31 68  1  0  0  0  0
 34 35  1  0  0  0  0
 34 69  1  0  0  0  0
 35 36  2  0  0  0  0
 35 70  1  0  0  0  0
 36 71  1  0  0  0  0
M  CHG  1  19   1
M  END
$$$$
