5W0
 OpenBabel04161910123D

 72 75  0  0  0  0  0  0  0  0999 V2000
   -4.2232  -14.0675   -8.6922 C   0  0  0  0  0  0  0  0  0  0  0  0
   -4.0132  -12.5237   -6.8708 N   0  0  0  0  0  0  0  0  0  0  0  0
   -3.5493  -11.5288   -6.0246 C   0  0  0  0  0  0  0  0  0  0  0  0
   -3.9862  -10.0816   -4.3019 C   0  0  0  0  0  0  0  0  0  0  0  0
   -2.2517   -8.5657   -3.3435 C   0  0  0  0  0  0  0  0  0  0  0  0
    0.4783  -10.2610   -6.2372 C   0  0  0  0  0  0  0  0  0  0  0  0
    0.6117  -11.6260   -6.4877 C   0  0  0  0  0  0  0  0  0  0  0  0
    1.5566  -12.0993   -7.3935 C   0  0  0  0  0  0  0  0  0  0  0  0
    2.2445   -9.8250   -7.8480 C   0  0  0  0  0  0  0  0  0  0  0  0
   -0.6756  -16.8273  -14.9992 C   0  0  0  0  0  0  0  0  0  0  0  0
   -1.3639  -16.0997  -13.9347 N   0  3  0  0  0  0  0  0  0  0  0  0
   -0.5185  -15.0274  -13.3343 C   0  0  0  0  0  0  0  0  0  0  0  0
   -1.3060  -14.3407  -12.2321 C   0  0  0  0  0  0  0  0  0  0  0  0
   -1.7899  -15.3089  -11.2376 N   0  0  0  0  0  0  0  0  0  0  0  0
   -2.6107  -16.3545  -11.8318 C   0  0  0  0  0  0  0  0  0  0  0  0
   -1.8303  -17.0744  -12.9074 C   0  0  0  0  0  0  0  0  0  0  0  0
   -2.3564  -14.6336  -10.1373 C   0  0  0  0  0  0  0  0  0  0  0  0
   -3.6999  -14.7647   -9.7797 C   0  0  0  0  0  0  0  0  0  0  0  0
   -3.4178  -13.2225   -7.9267 C   0  0  0  0  0  0  0  0  0  0  0  0
   -4.4183  -11.0367   -5.1389 N   0  0  0  0  0  0  0  0  0  0  0  0
   -2.6728   -9.6113   -4.3105 C   0  0  0  0  0  0  0  0  0  0  0  0
   -1.8396  -10.1691   -5.2523 C   0  0  0  0  0  0  0  0  0  0  0  0
   -0.4975   -9.7634   -5.3559 N   0  0  0  0  0  0  0  0  0  0  0  0
    2.3761  -11.1977   -8.0632 C   0  0  0  0  0  0  0  0  0  0  0  0
    3.1769   -8.9771   -8.5045 N   0  0  0  0  0  0  0  0  0  0  0  0
    2.9030   -7.4078   -8.9500 S   0  0  0  0  0  0  0  0  0  0  0  0
    1.5043   -7.0320   -8.7327 O   0  0  0  0  0  0  0  0  0  0  0  0
    3.5127   -7.2782  -10.2738 O   0  0  0  0  0  0  0  0  0  0  0  0
    3.9408   -6.4430   -7.8158 C   0  0  0  0  0  0  0  0  0  0  0  0
    3.8818   -4.9721   -8.2297 C   0  0  0  0  0  0  0  0  0  0  0  0
    3.4604   -6.5739   -6.3777 C   0  0  0  0  0  0  0  0  0  0  0  0
    5.3799   -6.9440   -7.9310 C   0  0  0  0  0  0  0  0  0  0  0  0
    1.3036   -9.3677   -6.9291 C   0  0  0  0  0  0  0  0  0  0  0  0
   -2.2875  -11.1069   -6.1102 N   0  0  0  0  0  0  0  0  0  0  0  0
   -2.0861  -13.0902   -8.2839 C   0  0  0  0  0  0  0  0  0  0  0  0
   -1.5598  -13.7884   -9.3551 C   0  0  0  0  0  0  0  0  0  0  0  0
   -0.2514  -13.6565   -9.6366 F   0  0  0  0  0  0  0  0  0  0  0  0
   -5.2716  -14.1791   -8.4371 H   0  0  0  0  0  0  0  0  0  0  0  0
   -4.9723  -12.7667   -6.6419 H   0  0  0  0  0  0  0  0  0  0  0  0
   -4.7154   -9.6978   -3.6142 H   0  0  0  0  0  0  0  0  0  0  0  0
   -3.0788   -8.2763   -2.6915 H   0  0  0  0  0  0  0  0  0  0  0  0
   -1.9141   -7.6789   -3.8851 H   0  0  0  0  0  0  0  0  0  0  0  0
   -1.4401   -8.9478   -2.7195 H   0  0  0  0  0  0  0  0  0  0  0  0
   -0.0249  -12.3412   -5.9673 H   0  0  0  0  0  0  0  0  0  0  0  0
    1.6515  -13.1641   -7.5730 H   0  0  0  0  0  0  0  0  0  0  0  0
   -0.3523  -16.0732  -15.7105 H   0  0  0  0  0  0  0  0  0  0  0  0
   -1.4262  -17.4974  -15.4087 H   0  0  0  0  0  0  0  0  0  0  0  0
    0.1511  -17.3564  -14.5215 H   0  0  0  0  0  0  0  0  0  0  0  0
   -0.2952  -14.3242  -14.1393 H   0  0  0  0  0  0  0  0  0  0  0  0
    0.3922  -15.5122  -12.9593 H   0  0  0  0  0  0  0  0  0  0  0  0
   -2.1818  -13.8528  -12.6856 H   0  0  0  0  0  0  0  0  0  0  0  0
   -0.6347  -13.6201  -11.7806 H   0  0  0  0  0  0  0  0  0  0  0  0
   -3.4988  -15.8974  -12.2947 H   0  0  0  0  0  0  0  0  0  0  0  0
   -2.8689  -17.0931  -11.0796 H   0  0  0  0  0  0  0  0  0  0  0  0
   -0.9266  -17.5543  -12.5097 H   0  0  0  0  0  0  0  0  0  0  0  0
   -2.4705  -17.7811  -13.4340 H   0  0  0  0  0  0  0  0  0  0  0  0
   -4.3802  -15.3955  -10.3380 H   0  0  0  0  0  0  0  0  0  0  0  0
   -0.1843   -9.0204   -4.7512 H   0  0  0  0  0  0  0  0  0  0  0  0
    3.1103  -11.5760   -8.7672 H   0  0  0  0  0  0  0  0  0  0  0  0
    4.0163   -9.4072   -8.8890 H   0  0  0  0  0  0  0  0  0  0  0  0
    4.4899   -4.3431   -7.5697 H   0  0  0  0  0  0  0  0  0  0  0  0
    2.8496   -4.6081   -8.1979 H   0  0  0  0  0  0  0  0  0  0  0  0
    4.2501   -4.8495   -9.2535 H   0  0  0  0  0  0  0  0  0  0  0  0
    4.0766   -5.9692   -5.6939 H   0  0  0  0  0  0  0  0  0  0  0  0
    3.5227   -7.6153   -6.0442 H   0  0  0  0  0  0  0  0  0  0  0  0
    2.4258   -6.2399   -6.2822 H   0  0  0  0  0  0  0  0  0  0  0  0
    6.0556   -6.3806   -7.2794 H   0  0  0  0  0  0  0  0  0  0  0  0
    5.7313   -6.8454   -8.9630 H   0  0  0  0  0  0  0  0  0  0  0  0
    5.4360   -8.0008   -7.6539 H   0  0  0  0  0  0  0  0  0  0  0  0
    1.1881   -8.3070   -6.7453 H   0  0  0  0  0  0  0  0  0  0  0  0
   -1.4182  -12.4437   -7.7383 H   0  0  0  0  0  0  0  0  0  0  0  0
   -2.2002  -15.6338  -14.3439 H   0  0  0  0  0  0  0  0  0  0  0  0
  1 18  2  0  0  0  0
  1 19  1  0  0  0  0
  1 38  1  0  0  0  0
  2  3  1  0  0  0  0
  2 19  1  0  0  0  0
  2 39  1  0  0  0  0
  3 20  2  0  0  0  0
  3 34  1  0  0  0  0
  4 20  1  0  0  0  0
  4 21  2  0  0  0  0
  4 40  1  0  0  0  0
  5 21  1  0  0  0  0
  5 41  1  0  0  0  0
  5 42  1  0  0  0  0
  5 43  1  0  0  0  0
  6  7  2  0  0  0  0
  6 23  1  0  0  0  0
  6 33  1  0  0  0  0
  7  8  1  0  0  0  0
  7 44  1  0  0  0  0
  8 24  2  0  0  0  0
  8 45  1  0  0  0  0
  9 24  1  0  0  0  0
  9 25  1  0  0  0  0
  9 33  2  0  0  0  0
 10 11  1  0  0  0  0
 10 46  1  0  0  0  0
 10 47  1  0  0  0  0
 10 48  1  0  0  0  0
 11 12  1  0  0  0  0
 11 16  1  0  0  0  0
 11 72  1  0  0  0  0
 12 13  1  0  0  0  0
 12 49  1  0  0  0  0
 12 50  1  0  0  0  0
 13 14  1  0  0  0  0
 13 51  1  0  0  0  0
 13 52  1  0  0  0  0
 14 15  1  0  0  0  0
 14 17  1  0  0  0  0
 15 16  1  0  0  0  0
 15 53  1  0  0  0  0
 15 54  1  0  0  0  0
 16 55  1  0  0  0  0
 16 56  1  0  0  0  0
 17 18  1  0  0  0  0
 17 36  2  0  0  0  0
 18 57  1  0  0  0  0
 19 35  2  0  0  0  0
 21 22  1  0  0  0  0
 22 23  1  0  0  0  0
 22 34  2  0  0  0  0
 23 58  1  0  0  0  0
 24 59  1  0  0  0  0
 25 26  1  0  0  0  0
 25 60  1  0  0  0  0
 26 27  2  0  0  0  0
 26 28  2  0  0  0  0
 26 29  1  0  0  0  0
 29 30  1  0  0  0  0
 29 31  1  0  0  0  0
 29 32  1  0  0  0  0
 30 61  1  0  0  0  0
 30 62  1  0  0  0  0
 30 63  1  0  0  0  0
 31 64  1  0  0  0  0
 31 65  1  0  0  0  0
 31 66  1  0  0  0  0
 32 67  1  0  0  0  0
 32 68  1  0  0  0  0
 32 69  1  0  0  0  0
 33 70  1  0  0  0  0
 35 36  1  0  0  0  0
 35 71  1  0  0  0  0
 36 37  1  0  0  0  0
M  CHG  1  11   1
M  END
$$$$
