5WD
 OpenBabel04161910133D

 36 38  0  0  1  0  0  0  0  0999 V2000
    3.5262   10.0466    1.7950 C   0  0  1  0  0  0  0  0  0  0  0  0
    2.2406    9.6459    2.1789 C   0  0  0  0  0  0  0  0  0  0  0  0
    1.8808    8.2837    2.2674 C   0  0  0  0  0  0  0  0  0  0  0  0
    5.1412   11.7869    1.9858 C   0  0  0  0  0  0  0  0  0  0  0  0
    5.4596   13.2034    1.5576 C   0  0  2  0  0  0  0  0  0  0  0  0
    5.8273   13.4822    0.2293 C   0  0  0  0  0  0  0  0  0  0  0  0
    6.1995   14.7742   -0.1550 C   0  0  0  0  0  0  0  0  0  0  0  0
    6.1986   15.8068    0.7806 C   0  0  0  0  0  0  0  0  0  0  0  0
    5.8515   15.5511    2.1132 C   0  0  1  0  0  0  0  0  0  0  0  0
    5.4875   14.2476    2.4936 C   0  0  0  0  0  0  0  0  0  0  0  0
    5.8858   16.6609    3.1253 C   0  0  0  0  0  0  0  0  0  0  0  0
    4.4640    9.0674    1.4606 C   0  0  0  0  0  0  0  0  0  0  0  0
    4.1321    7.7076    1.5545 C   0  0  1  0  0  0  0  0  0  0  0  0
    2.8559    7.3299    1.9521 C   0  0  2  0  0  0  0  0  0  0  0  0
    2.8322    5.9509    1.9339 N   0  3  0  0  0  0  0  0  0  0  0  0
    4.0587    5.4397    1.5518 C   0  0  2  0  0  0  0  0  0  0  0  0
    4.8715    6.5286    1.2995 C   0  0  0  0  0  0  0  0  0  0  0  0
    4.3408    4.0281    1.4552 C   0  0  0  0  0  0  0  0  0  0  0  0
    5.6292    3.7114    1.1298 N   0  0  0  0  0  0  0  0  0  0  0  0
    3.5083    3.1504    1.6457 O   0  0  0  0  0  0  0  0  0  0  0  0
    3.7828   11.3974    1.7055 O   0  0  0  0  0  0  0  0  0  0  0  0
    6.6784   16.5099    4.1057 O   0  0  0  0  0  0  0  0  0  0  0  0
    5.1263   17.6540    2.9064 O   0  0  0  0  0  0  0  0  0  0  0  0
    1.4978   10.4038    2.4191 H   0  0  0  0  0  0  0  0  0  0  0  0
    0.8743    7.9950    2.5708 H   0  0  0  0  0  0  0  0  0  0  0  0
    5.3281   11.6662    3.0597 H   0  0  0  0  0  0  0  0  0  0  0  0
    5.8682   11.1656    1.4567 H   0  0  0  0  0  0  0  0  0  0  0  0
    5.8508   12.6872   -0.5110 H   0  0  0  0  0  0  0  0  0  0  0  0
    6.4971   14.9802   -1.1787 H   0  0  0  0  0  0  0  0  0  0  0  0
    6.4784   16.8185    0.4931 H   0  0  0  0  0  0  0  0  0  0  0  0
    5.2446   14.0677    3.5392 H   0  0  0  0  0  0  0  0  0  0  0  0
    5.4510    9.3062    1.0965 H   0  0  0  0  0  0  0  0  0  0  0  0
    2.0337    5.3733    2.1697 H   0  0  0  0  0  0  0  0  0  0  0  0
    5.8987    6.5045    0.9704 H   0  0  0  0  0  0  0  0  0  0  0  0
    5.8834    2.7353    1.0721 H   0  0  0  0  0  0  0  0  0  0  0  0
    6.3544    4.4012    1.0217 H   0  0  0  0  0  0  0  0  0  0  0  0
  1  2  1  0  0  0  0
  1 12  1  0  0  0  0
  1 21  1  6  0  0  0
  2  3  1  0  0  0  0
  2 24  1  0  0  0  0
  3 25  1  0  0  0  0
  4 21  1  0  0  0  0
  4 26  1  0  0  0  0
  4 27  1  0  0  0  0
  5  4  1  1  0  0  0
  5  6  1  0  0  0  0
  5 10  1  0  0  0  0
  6  7  1  0  0  0  0
  6 28  1  0  0  0  0
  7  8  1  0  0  0  0
  7 29  1  0  0  0  0
  8  9  1  0  0  0  0
  8 30  1  0  0  0  0
  9 10  1  0  0  0  0
  9 11  1  1  0  0  0
 10 31  1  0  0  0  0
 11 22  2  0  0  0  0
 11 23  1  0  0  0  0
 12 32  1  0  0  0  0
 13 12  1  6  0  0  0
 13 14  1  0  0  0  0
 13 17  1  0  0  0  0
 14  3  1  6  0  0  0
 14 15  1  0  0  0  0
 15 16  1  0  0  0  0
 15 33  1  0  0  0  0
 16 17  1  0  0  0  0
 16 18  1  6  0  0  0
 17 34  1  0  0  0  0
 18 19  1  0  0  0  0
 18 20  2  0  0  0  0
 19 35  1  0  0  0  0
 19 36  1  0  0  0  0
M  CHG  1  15   1
M  END
$$$$
