5XK
 OpenBabel04161910153D

 40 42  0  0  0  0  0  0  0  0999 V2000
    0.4484   28.1314   13.4250 C   0  0  0  0  0  0  0  0  0  0  0  0
    3.4120   26.8865    7.0647 C   0  0  0  0  0  0  0  0  0  0  0  0
    0.6763   29.4350   10.6477 C   0  0  0  0  0  0  0  0  0  0  0  0
    0.5799   28.2698    9.7511 C   0  0  0  0  0  0  0  0  0  0  0  0
    2.7850   24.4453    5.8477 C   0  0  0  0  0  0  0  0  0  0  0  0
   -0.4309   27.2967    9.5832 C   0  0  0  0  0  0  0  0  0  0  0  0
    0.0873   26.3338    8.7320 C   0  0  0  0  0  0  0  0  0  0  0  0
    2.1939   26.2242    7.3286 C   0  0  0  0  0  0  0  0  0  0  0  0
    1.8882   25.0172    6.7174 C   0  0  0  0  0  0  0  0  0  0  0  0
    4.0153   25.0581    5.5920 C   0  0  0  0  0  0  0  0  0  0  0  0
    4.3511   26.2568    6.2247 C   0  0  0  0  0  0  0  0  0  0  0  0
    2.7495   28.6903    8.6511 N   0  3  0  0  0  0  0  0  0  0  0  0
    0.1181   29.5734   13.0731 C   0  0  0  0  0  0  0  0  0  0  0  0
    5.9676   26.8176    5.9800 Cl  0  0  0  0  0  0  0  0  0  0  0  0
    3.6969   28.2071    7.7016 C   0  0  0  0  0  0  0  0  0  0  0  0
    4.6332   28.9420    7.4759 O   0  0  0  0  0  0  0  0  0  0  0  0
    1.5870   27.9685    8.8825 C   0  0  0  0  0  0  0  0  0  0  0  0
    1.2906   26.7913    8.2520 N   0  3  0  0  0  0  0  0  0  0  0  0
   -0.4321   29.7318   11.6456 C   0  0  0  0  0  0  0  0  0  0  0  0
   -0.8138   31.2076   11.4147 C   0  0  0  0  0  0  0  0  0  0  0  0
   -1.6132   31.3737   10.1319 C   0  0  0  0  0  0  0  0  0  0  0  0
    0.8408   28.0801   14.4449 H   0  0  0  0  0  0  0  0  0  0  0  0
    1.2084   27.7141   12.7573 H   0  0  0  0  0  0  0  0  0  0  0  0
   -0.4450   27.5041   13.3634 H   0  0  0  0  0  0  0  0  0  0  0  0
    0.8102   30.2834    9.9770 H   0  0  0  0  0  0  0  0  0  0  0  0
    1.6181   29.3116   11.1860 H   0  0  0  0  0  0  0  0  0  0  0  0
    2.5539   23.4849    5.3785 H   0  0  0  0  0  0  0  0  0  0  0  0
   -1.3926   27.2584   10.0881 H   0  0  0  0  0  0  0  0  0  0  0  0
   -0.3168   25.3652    8.4594 H   0  0  0  0  0  0  0  0  0  0  0  0
    0.9439   24.5063    6.9182 H   0  0  0  0  0  0  0  0  0  0  0  0
    4.7175   24.5825    4.9115 H   0  0  0  0  0  0  0  0  0  0  0  0
    2.9535   29.5623    9.1100 H   0  0  0  0  0  0  0  0  0  0  0  0
    1.0282   30.1783   13.1804 H   0  0  0  0  0  0  0  0  0  0  0  0
   -0.6147   29.9540   13.7918 H   0  0  0  0  0  0  0  0  0  0  0  0
   -1.3188   29.0946   11.5344 H   0  0  0  0  0  0  0  0  0  0  0  0
    0.1024   31.8127   11.3358 H   0  0  0  0  0  0  0  0  0  0  0  0
   -1.3866   31.6005   12.2563 H   0  0  0  0  0  0  0  0  0  0  0  0
   -1.8446   32.4292    9.9742 H   0  0  0  0  0  0  0  0  0  0  0  0
   -2.5447   30.8062   10.1965 H   0  0  0  0  0  0  0  0  0  0  0  0
   -1.0619   31.0208    9.2544 H   0  0  0  0  0  0  0  0  0  0  0  0
  1 13  1  0  0  0  0
  1 22  1  0  0  0  0
  1 23  1  0  0  0  0
  1 24  1  0  0  0  0
  2  8  2  0  0  0  0
  2 11  1  0  0  0  0
  2 15  1  0  0  0  0
  3  4  1  0  0  0  0
  3 19  1  0  0  0  0
  3 25  1  0  0  0  0
  3 26  1  0  0  0  0
  4  6  2  0  0  0  0
  4 17  1  0  0  0  0
  5  9  2  0  0  0  0
  5 10  1  0  0  0  0
  5 27  1  0  0  0  0
  6  7  1  0  0  0  0
  6 28  1  0  0  0  0
  7 18  2  0  0  0  0
  7 29  1  0  0  0  0
  8  9  1  0  0  0  0
  8 18  1  0  0  0  0
  9 30  1  0  0  0  0
 10 11  2  0  0  0  0
 10 31  1  0  0  0  0
 11 14  1  0  0  0  0
 12 15  1  0  0  0  0
 12 17  2  0  0  0  0
 12 32  1  0  0  0  0
 13 19  1  0  0  0  0
 13 33  1  0  0  0  0
 13 34  1  0  0  0  0
 15 16  2  0  0  0  0
 17 18  1  0  0  0  0
 19 20  1  0  0  0  0
 19 35  1  0  0  0  0
 20 21  1  0  0  0  0
 20 36  1  0  0  0  0
 20 37  1  0  0  0  0
 21 38  1  0  0  0  0
 21 39  1  0  0  0  0
 21 40  1  0  0  0  0
M  CHG  2  12   1  18   1
M  END
$$$$
