5XN
 OpenBabel04161910163D

 38 40  0  0  1  0  0  0  0  0999 V2000
   93.3189   16.9319   29.1038 C   0  0  0  0  0  0  0  0  0  0  0  0
   93.5950   16.6749   30.3907 C   0  0  0  0  0  0  0  0  0  0  0  0
   92.6577   17.1789   31.3032 O   0  0  0  0  0  0  0  0  0  0  0  0
   91.7140   17.8257   30.4567 N   0  3  0  0  0  0  0  0  0  0  0  0
   92.0803   17.7265   29.1295 C   0  0  0  0  0  0  0  0  0  0  0  0
   94.7109   15.9329   30.9006 C   0  0  0  0  0  0  0  0  0  0  0  0
   94.8245   15.6434   32.2369 N   0  0  0  0  0  0  0  0  0  0  0  0
   95.9252   14.9301   32.3840 N   0  0  0  0  0  0  0  0  0  0  0  0
   96.4563   14.8252   31.1535 N   0  0  0  0  0  0  0  0  0  0  0  0
   95.7179   15.3944   30.1715 N   0  0  0  0  0  0  0  0  0  0  0  0
   97.7046   14.1132   30.9181 C   0  0  0  0  0  0  0  0  0  0  0  0
  100.1663   14.2974   34.4613 C   0  0  0  0  0  0  0  0  0  0  0  0
   99.4263   13.1469   34.1847 C   0  0  0  0  0  0  0  0  0  0  0  0
   98.6334   13.0796   33.0363 C   0  0  0  0  0  0  0  0  0  0  0  0
   98.5875   14.1676   32.1449 C   0  0  0  0  0  0  0  0  0  0  0  0
   99.3182   15.3299   32.4394 C   0  0  0  0  0  0  0  0  0  0  0  0
  100.1096   15.3914   33.5902 C   0  0  0  0  0  0  0  0  0  0  0  0
   91.4860   18.1687   28.1928 O   0  0  0  0  0  0  0  0  0  0  0  0
   94.0248   16.6006   27.8272 C   0  0  0  0  0  0  0  0  0  0  0  0
   93.5195   15.3249   27.1317 C   0  0  1  0  0  0  0  0  0  0  0  0
   93.5450   15.4271   25.5696 C   0  0  0  0  0  0  0  0  0  0  0  0
   94.1271   14.4441   25.0200 O   0  0  0  0  0  0  0  0  0  0  0  0
   93.0018   16.4423   25.0738 O   0  0  0  0  0  0  0  0  0  0  0  0
   94.3263   14.1222   27.5818 N   0  3  0  0  0  0  0  0  0  0  0  0
   99.5030   11.8028   35.2637 Cl  0  0  0  0  0  0  0  0  0  0  0  0
   90.9101   18.3190   30.8116 H   0  0  0  0  0  0  0  0  0  0  0  0
   98.2182   14.5662   30.0596 H   0  0  0  0  0  0  0  0  0  0  0  0
   97.4615   13.0718   30.6636 H   0  0  0  0  0  0  0  0  0  0  0  0
  100.7859   14.3471   35.3552 H   0  0  0  0  0  0  0  0  0  0  0  0
   98.0485   12.1834   32.8312 H   0  0  0  0  0  0  0  0  0  0  0  0
   99.2723   16.1915   31.7708 H   0  0  0  0  0  0  0  0  0  0  0  0
  100.6851   16.2908   33.8086 H   0  0  0  0  0  0  0  0  0  0  0  0
   95.0950   16.5140   28.0433 H   0  0  0  0  0  0  0  0  0  0  0  0
   93.9057   17.4457   27.1425 H   0  0  0  0  0  0  0  0  0  0  0  0
   92.4977   15.1211   27.4673 H   0  0  0  0  0  0  0  0  0  0  0  0
   93.9712   13.3138   27.0401 H   0  0  0  0  0  0  0  0  0  0  0  0
   95.2920   14.2572   27.2467 H   0  0  0  0  0  0  0  0  0  0  0  0
   94.2830   13.9737   28.5893 H   0  0  0  0  0  0  0  0  0  0  0  0
  1  2  2  0  0  0  0
  1  5  1  0  0  0  0
  1 19  1  0  0  0  0
  2  3  1  0  0  0  0
  2  6  1  0  0  0  0
  3  4  1  0  0  0  0
  4  5  1  0  0  0  0
  4 26  1  0  0  0  0
  5 18  2  0  0  0  0
  6  7  1  0  0  0  0
  6 10  2  0  0  0  0
  7  8  2  0  0  0  0
  8  9  1  0  0  0  0
  9 10  1  0  0  0  0
  9 11  1  0  0  0  0
 11 15  1  0  0  0  0
 11 27  1  0  0  0  0
 11 28  1  0  0  0  0
 12 13  2  0  0  0  0
 12 17  1  0  0  0  0
 12 29  1  0  0  0  0
 13 14  1  0  0  0  0
 13 25  1  0  0  0  0
 14 15  2  0  0  0  0
 14 30  1  0  0  0  0
 15 16  1  0  0  0  0
 16 17  2  0  0  0  0
 16 31  1  0  0  0  0
 17 32  1  0  0  0  0
 19 20  1  0  0  0  0
 19 33  1  0  0  0  0
 19 34  1  0  0  0  0
 20 21  1  0  0  0  0
 20 24  1  0  0  0  0
 20 35  1  1  0  0  0
 21 22  2  0  0  0  0
 21 23  1  0  0  0  0
 24 36  1  0  0  0  0
 24 37  1  0  0  0  0
 24 38  1  0  0  0  0
M  CHG  2   4   1  24   1
M  END
$$$$
