5XO
 OpenBabel04161910163D

 41 43  0  0  1  0  0  0  0  0999 V2000
  -16.1107  -11.2239    8.5009 C   0  0  0  0  0  0  0  0  0  0  0  0
  -16.4958  -10.7149    9.6721 C   0  0  0  0  0  0  0  0  0  0  0  0
  -16.2921  -11.5425   10.7783 O   0  0  0  0  0  0  0  0  0  0  0  0
  -15.7241  -12.6895   10.1939 N   0  3  0  0  0  0  0  0  0  0  0  0
  -15.6042  -12.5377    8.8418 C   0  0  0  0  0  0  0  0  0  0  0  0
  -17.0525   -9.4258    9.8942 C   0  0  0  0  0  0  0  0  0  0  0  0
  -17.2346   -8.9335   11.1506 N   0  0  0  0  0  0  0  0  0  0  0  0
  -17.6754   -7.6811   11.0099 N   0  0  0  0  0  0  0  0  0  0  0  0
  -17.8086   -7.5144    9.6772 N   0  0  0  0  0  0  0  0  0  0  0  0
  -17.3171   -8.5171    8.9301 N   0  0  0  0  0  0  0  0  0  0  0  0
  -18.2463   -6.2788    9.0601 C   0  0  0  0  0  0  0  0  0  0  0  0
  -21.3722   -4.3690   11.2863 C   0  0  0  0  0  0  0  0  0  0  0  0
  -20.0608   -3.8888   11.3786 C   0  0  0  0  0  0  0  0  0  0  0  0
  -19.0551   -4.5256   10.6533 C   0  0  0  0  0  0  0  0  0  0  0  0
  -19.3531   -5.6163    9.8246 C   0  0  0  0  0  0  0  0  0  0  0  0
  -20.6664   -6.0990    9.7544 C   0  0  0  0  0  0  0  0  0  0  0  0
  -21.6709   -5.4767   10.4889 C   0  0  0  0  0  0  0  0  0  0  0  0
  -15.1371  -13.3488    8.0660 O   0  0  0  0  0  0  0  0  0  0  0  0
  -16.1596  -10.7333    7.0981 C   0  0  0  0  0  0  0  0  0  0  0  0
  -14.8427  -10.0910    6.6621 C   0  0  1  0  0  0  0  0  0  0  0  0
  -14.4462  -10.4565    5.2065 C   0  0  0  0  0  0  0  0  0  0  0  0
  -14.0871   -9.4158    4.5698 O   0  0  0  0  0  0  0  0  0  0  0  0
  -14.5343  -11.6547    4.8672 O   0  0  0  0  0  0  0  0  0  0  0  0
  -14.9166   -8.5762    6.8348 N   0  3  0  0  0  0  0  0  0  0  0  0
  -19.7240   -2.7086   12.2392 C   0  0  0  0  0  0  0  0  0  0  0  0
  -15.4579  -13.5040   10.7325 H   0  0  0  0  0  0  0  0  0  0  0  0
  -18.5714   -6.4994    8.0386 H   0  0  0  0  0  0  0  0  0  0  0  0
  -17.3657   -5.6248    8.9884 H   0  0  0  0  0  0  0  0  0  0  0  0
  -22.1700   -3.8848   11.8408 H   0  0  0  0  0  0  0  0  0  0  0  0
  -18.0273   -4.1762   10.7405 H   0  0  0  0  0  0  0  0  0  0  0  0
  -20.9122   -6.9630    9.1391 H   0  0  0  0  0  0  0  0  0  0  0  0
  -22.6908   -5.8504   10.4444 H   0  0  0  0  0  0  0  0  0  0  0  0
  -17.0056  -10.0494    6.9614 H   0  0  0  0  0  0  0  0  0  0  0  0
  -16.4082  -11.5965    6.4615 H   0  0  0  0  0  0  0  0  0  0  0  0
  -14.0139  -10.3931    7.3102 H   0  0  0  0  0  0  0  0  0  0  0  0
  -14.0414   -8.2264    6.4084 H   0  0  0  0  0  0  0  0  0  0  0  0
  -15.6320   -8.2146    6.1940 H   0  0  0  0  0  0  0  0  0  0  0  0
  -20.6149   -2.3130   12.7349 H   0  0  0  0  0  0  0  0  0  0  0  0
  -19.2940   -1.9076   11.6283 H   0  0  0  0  0  0  0  0  0  0  0  0
  -19.0035   -2.9945   13.0125 H   0  0  0  0  0  0  0  0  0  0  0  0
  -15.0585   -8.2596    7.7933 H   0  0  0  0  0  0  0  0  0  0  0  0
  1  2  2  0  0  0  0
  1  5  1  0  0  0  0
  1 19  1  0  0  0  0
  2  3  1  0  0  0  0
  2  6  1  0  0  0  0
  3  4  1  0  0  0  0
  4  5  1  0  0  0  0
  4 26  1  0  0  0  0
  5 18  2  0  0  0  0
  6  7  1  0  0  0  0
  6 10  2  0  0  0  0
  7  8  2  0  0  0  0
  8  9  1  0  0  0  0
  9 10  1  0  0  0  0
  9 11  1  0  0  0  0
 11 15  1  0  0  0  0
 11 27  1  0  0  0  0
 11 28  1  0  0  0  0
 12 13  2  0  0  0  0
 12 17  1  0  0  0  0
 12 29  1  0  0  0  0
 13 14  1  0  0  0  0
 13 25  1  0  0  0  0
 14 15  2  0  0  0  0
 14 30  1  0  0  0  0
 15 16  1  0  0  0  0
 16 17  2  0  0  0  0
 16 31  1  0  0  0  0
 17 32  1  0  0  0  0
 19 20  1  0  0  0  0
 19 33  1  0  0  0  0
 19 34  1  0  0  0  0
 20 21  1  0  0  0  0
 20 24  1  0  0  0  0
 20 35  1  1  0  0  0
 21 22  2  0  0  0  0
 21 23  1  0  0  0  0
 24 36  1  0  0  0  0
 24 37  1  0  0  0  0
 24 41  1  0  0  0  0
 25 38  1  0  0  0  0
 25 39  1  0  0  0  0
 25 40  1  0  0  0  0
M  CHG  2   4   1  24   1
M  END
$$$$
