5XP
 OpenBabel04161910153D

 44 46  0  0  1  0  0  0  0  0999 V2000
   -8.4304  -12.9595   22.6218 C   0  0  0  0  0  0  0  0  0  0  0  0
   -8.0588  -12.5459   21.4194 C   0  0  0  0  0  0  0  0  0  0  0  0
   -8.7078  -13.1424   20.3209 O   0  0  0  0  0  0  0  0  0  0  0  0
   -9.5687  -14.0441   20.9678 N   0  3  0  0  0  0  0  0  0  0  0  0
   -9.4340  -13.9807   22.3091 C   0  0  0  0  0  0  0  0  0  0  0  0
   -7.0641  -11.5701   21.1664 C   0  0  0  0  0  0  0  0  0  0  0  0
   -6.9602  -10.9453   19.9612 N   0  0  0  0  0  0  0  0  0  0  0  0
   -5.9719  -10.0755   20.0775 N   0  0  0  0  0  0  0  0  0  0  0  0
   -5.5068  -10.2342   21.3261 N   0  0  0  0  0  0  0  0  0  0  0  0
   -6.1888  -11.1099   22.0805 N   0  0  0  0  0  0  0  0  0  0  0  0
   -4.3712   -9.4858   21.8346 C   0  0  0  0  0  0  0  0  0  0  0  0
   -1.9650   -8.0396   18.5511 C   0  0  0  0  0  0  0  0  0  0  0  0
   -1.7052   -9.3256   19.0511 C   0  0  0  0  0  0  0  0  0  0  0  0
   -2.4630   -9.8089   20.1400 C   0  0  0  0  0  0  0  0  0  0  0  0
   -3.4816   -9.0156   20.7030 C   0  0  0  0  0  0  0  0  0  0  0  0
   -3.7500   -7.7556   20.1489 C   0  0  0  0  0  0  0  0  0  0  0  0
   -2.9902   -7.2675   19.0908 C   0  0  0  0  0  0  0  0  0  0  0  0
  -10.0355  -14.5946   23.1496 O   0  0  0  0  0  0  0  0  0  0  0  0
   -8.0808  -12.7046   24.0520 C   0  0  0  0  0  0  0  0  0  0  0  0
   -9.0179  -11.7015   24.7347 C   0  0  1  0  0  0  0  0  0  0  0  0
   -9.3014  -12.0051   26.2348 C   0  0  0  0  0  0  0  0  0  0  0  0
   -9.1827  -10.9775   26.9609 O   0  0  0  0  0  0  0  0  0  0  0  0
   -9.5607  -13.2016   26.5022 O   0  0  0  0  0  0  0  0  0  0  0  0
   -8.4324  -10.3098   24.5793 N   0  3  0  0  0  0  0  0  0  0  0  0
   -0.6158  -10.1367   18.4086 C   0  0  0  0  0  0  0  0  0  0  0  0
    0.6322  -10.1045   19.1952 N   0  3  0  0  0  0  0  0  0  0  0  0
  -10.2134  -14.6744   20.4761 H   0  0  0  0  0  0  0  0  0  0  0  0
   -3.8152  -10.1164   22.5384 H   0  0  0  0  0  0  0  0  0  0  0  0
   -4.7741   -8.6289   22.3956 H   0  0  0  0  0  0  0  0  0  0  0  0
   -1.3810   -7.6367   17.7215 H   0  0  0  0  0  0  0  0  0  0  0  0
   -2.2751  -10.8045   20.5451 H   0  0  0  0  0  0  0  0  0  0  0  0
   -4.5667   -7.1528   20.5484 H   0  0  0  0  0  0  0  0  0  0  0  0
   -3.2066   -6.2771   18.6921 H   0  0  0  0  0  0  0  0  0  0  0  0
   -7.0433  -12.3700   24.1080 H   0  0  0  0  0  0  0  0  0  0  0  0
   -8.1165  -13.6648   24.5899 H   0  0  0  0  0  0  0  0  0  0  0  0
   -9.9811  -11.6780   24.2122 H   0  0  0  0  0  0  0  0  0  0  0  0
   -9.0604   -9.6760   25.1025 H   0  0  0  0  0  0  0  0  0  0  0  0
   -7.5537  -10.2910   25.1113 H   0  0  0  0  0  0  0  0  0  0  0  0
   -0.3649   -9.7445   17.4156 H   0  0  0  0  0  0  0  0  0  0  0  0
   -0.9070  -11.1857   18.3076 H   0  0  0  0  0  0  0  0  0  0  0  0
    1.3742  -10.6548   18.7457 H   0  0  0  0  0  0  0  0  0  0  0  0
    0.9683   -9.1389   19.3002 H   0  0  0  0  0  0  0  0  0  0  0  0
   -8.3145  -10.0434   23.6104 H   0  0  0  0  0  0  0  0  0  0  0  0
    0.4739  -10.4857   20.1345 H   0  0  0  0  0  0  0  0  0  0  0  0
  1  2  2  0  0  0  0
  1  5  1  0  0  0  0
  1 19  1  0  0  0  0
  2  3  1  0  0  0  0
  2  6  1  0  0  0  0
  3  4  1  0  0  0  0
  4  5  1  0  0  0  0
  4 27  1  0  0  0  0
  5 18  2  0  0  0  0
  6  7  1  0  0  0  0
  6 10  2  0  0  0  0
  7  8  2  0  0  0  0
  8  9  1  0  0  0  0
  9 10  1  0  0  0  0
  9 11  1  0  0  0  0
 11 15  1  0  0  0  0
 11 28  1  0  0  0  0
 11 29  1  0  0  0  0
 12 13  2  0  0  0  0
 12 17  1  0  0  0  0
 12 30  1  0  0  0  0
 13 14  1  0  0  0  0
 13 25  1  0  0  0  0
 14 15  2  0  0  0  0
 14 31  1  0  0  0  0
 15 16  1  0  0  0  0
 16 17  2  0  0  0  0
 16 32  1  0  0  0  0
 17 33  1  0  0  0  0
 19 20  1  0  0  0  0
 19 34  1  0  0  0  0
 19 35  1  0  0  0  0
 20 21  1  0  0  0  0
 20 24  1  0  0  0  0
 20 36  1  6  0  0  0
 21 22  2  0  0  0  0
 21 23  1  0  0  0  0
 24 37  1  0  0  0  0
 24 38  1  0  0  0  0
 24 43  1  0  0  0  0
 25 26  1  0  0  0  0
 25 39  1  0  0  0  0
 25 40  1  0  0  0  0
 26 41  1  0  0  0  0
 26 42  1  0  0  0  0
 26 44  1  0  0  0  0
M  CHG  3   4   1  24   1  26   1
M  END
$$$$
