60D
 OpenBabel04161910303D

 69 74  0  0  0  0  0  0  0  0999 V2000
  -55.3769    1.0612  -24.4753 C   0  0  0  0  0  0  0  0  0  0  0  0
  -51.4240   -0.3672  -19.2380 C   0  0  0  0  0  0  0  0  0  0  0  0
  -52.2473    0.6058  -18.7052 C   0  0  0  0  0  0  0  0  0  0  0  0
  -53.0809    1.0641  -19.7821 C   0  0  0  0  0  0  0  0  0  0  0  0
  -52.7290    0.3544  -20.9274 C   0  0  0  0  0  0  0  0  0  0  0  0
  -53.3956    0.5692  -22.1382 C   0  0  0  0  0  0  0  0  0  0  0  0
  -54.4009    1.5277  -22.1686 C   0  0  0  0  0  0  0  0  0  0  0  0
  -54.1034    2.0188  -19.8903 C   0  0  0  0  0  0  0  0  0  0  0  0
  -51.7195   -2.8004  -21.4129 C   0  0  0  0  0  0  0  0  0  0  0  0
  -49.5348   -1.5519  -21.3206 C   0  0  0  0  0  0  0  0  0  0  0  0
  -51.0510   -1.4332  -21.5038 C   0  0  0  0  0  0  0  0  0  0  0  0
  -51.6951   -0.4947  -20.5862 N   0  3  0  0  0  0  0  0  0  0  0  0
  -54.7313    2.2447  -21.0748 N   0  0  0  0  0  0  0  0  0  0  0  0
  -55.1814    1.7832  -23.2945 N   0  0  0  0  0  0  0  0  0  0  0  0
  -56.5966    1.1662  -25.1209 C   0  0  0  0  0  0  0  0  0  0  0  0
  -56.7796    0.3887  -26.2429 C   0  0  0  0  0  0  0  0  0  0  0  0
  -55.8478   -0.4521  -26.7212 N   0  0  0  0  0  0  0  0  0  0  0  0
  -54.7118   -0.5105  -26.0117 C   0  0  0  0  0  0  0  0  0  0  0  0
  -54.4431    0.2000  -24.9087 N   0  0  0  0  0  0  0  0  0  0  0  0
  -53.6963   -1.4412  -26.4535 C   0  0  0  0  0  0  0  0  0  0  0  0
  -53.5016   -2.0290  -27.7181 C   0  0  0  0  0  0  0  0  0  0  0  0
  -52.4795   -2.8907  -27.7395 N   0  0  0  0  0  0  0  0  0  0  0  0
  -51.9356   -2.7736  -26.4946 N   0  3  0  0  0  0  0  0  0  0  0  0
  -52.6941   -1.9764  -25.6689 C   0  0  0  0  0  0  0  0  0  0  0  0
  -50.6781   -3.8056  -25.8625 S   0  0  0  0  0  0  0  0  0  0  0  0
  -49.8255   -4.1219  -26.9923 O   0  0  0  0  0  0  0  0  0  0  0  0
  -50.1737   -3.1194  -24.6853 O   0  0  0  0  0  0  0  0  0  0  0  0
  -51.4936   -5.3454  -25.3463 C   0  0  0  0  0  0  0  0  0  0  0  0
  -50.5569   -6.4678  -24.9689 C   0  0  0  0  0  0  0  0  0  0  0  0
  -51.3255   -5.7430  -23.9038 C   0  0  0  0  0  0  0  0  0  0  0  0
  -52.2879    1.1057  -17.3313 C   0  0  0  0  0  0  0  0  0  0  0  0
  -52.9721    2.0844  -17.0243 O   0  0  0  0  0  0  0  0  0  0  0  0
  -51.5404    0.4232  -16.3929 N   0  0  0  0  0  0  0  0  0  0  0  0
  -51.6365    0.7463  -14.9752 C   0  0  0  0  0  0  0  0  0  0  0  0
  -52.7472   -0.0624  -14.2989 C   0  0  0  0  0  0  0  0  0  0  0  0
  -52.7531    0.1959  -12.8000 C   0  0  0  0  0  0  0  0  0  0  0  0
  -51.4788   -0.1238  -12.2422 O   0  0  0  0  0  0  0  0  0  0  0  0
  -50.4305    0.6862  -12.7718 C   0  0  0  0  0  0  0  0  0  0  0  0
  -50.2985    0.5070  -14.2780 C   0  0  0  0  0  0  0  0  0  0  0  0
  -50.6517   -0.9722  -18.7790 H   0  0  0  0  0  0  0  0  0  0  0  0
  -53.1127    0.0248  -23.0274 H   0  0  0  0  0  0  0  0  0  0  0  0
  -54.4423    2.6099  -19.0465 H   0  0  0  0  0  0  0  0  0  0  0  0
  -51.2469   -3.4944  -22.1044 H   0  0  0  0  0  0  0  0  0  0  0  0
  -52.7809   -2.7401  -21.6752 H   0  0  0  0  0  0  0  0  0  0  0  0
  -51.6420   -3.2248  -20.4062 H   0  0  0  0  0  0  0  0  0  0  0  0
  -49.0547   -0.5703  -21.3867 H   0  0  0  0  0  0  0  0  0  0  0  0
  -49.1032   -2.1878  -22.1024 H   0  0  0  0  0  0  0  0  0  0  0  0
  -49.2730   -1.9983  -20.3563 H   0  0  0  0  0  0  0  0  0  0  0  0
  -51.2040   -1.0404  -22.5158 H   0  0  0  0  0  0  0  0  0  0  0  0
  -55.7083    2.6366  -23.1790 H   0  0  0  0  0  0  0  0  0  0  0  0
  -57.3895    1.8053  -24.7535 H   0  0  0  0  0  0  0  0  0  0  0  0
  -57.7136    0.4161  -26.7972 H   0  0  0  0  0  0  0  0  0  0  0  0
  -54.0796   -1.8700  -28.6211 H   0  0  0  0  0  0  0  0  0  0  0  0
  -52.4499   -1.8468  -24.6225 H   0  0  0  0  0  0  0  0  0  0  0  0
  -52.4088   -5.5972  -25.8617 H   0  0  0  0  0  0  0  0  0  0  0  0
  -49.4823   -6.3193  -24.9999 H   0  0  0  0  0  0  0  0  0  0  0  0
  -50.8592   -7.4831  -25.2037 H   0  0  0  0  0  0  0  0  0  0  0  0
  -52.1523   -6.2574  -23.4256 H   0  0  0  0  0  0  0  0  0  0  0  0
  -50.7377   -5.1441  -23.2216 H   0  0  0  0  0  0  0  0  0  0  0  0
  -51.1123   -0.4520  -16.6591 H   0  0  0  0  0  0  0  0  0  0  0  0
  -51.8840    1.8130  -14.8767 H   0  0  0  0  0  0  0  0  0  0  0  0
  -52.5670   -1.1306  -14.4749 H   0  0  0  0  0  0  0  0  0  0  0  0
  -53.7252    0.1782  -14.7296 H   0  0  0  0  0  0  0  0  0  0  0  0
  -53.4991   -0.4429  -12.3149 H   0  0  0  0  0  0  0  0  0  0  0  0
  -53.0111    1.2361  -12.5672 H   0  0  0  0  0  0  0  0  0  0  0  0
  -49.4991    0.3801  -12.2843 H   0  0  0  0  0  0  0  0  0  0  0  0
  -50.6109    1.7350  -12.5097 H   0  0  0  0  0  0  0  0  0  0  0  0
  -49.5369    1.1901  -14.6723 H   0  0  0  0  0  0  0  0  0  0  0  0
  -49.9576   -0.5133  -14.4938 H   0  0  0  0  0  0  0  0  0  0  0  0
  1 14  1  0  0  0  0
  1 15  2  0  0  0  0
  1 19  1  0  0  0  0
  2  3  2  0  0  0  0
  2 12  1  0  0  0  0
  2 40  1  0  0  0  0
  3  4  1  0  0  0  0
  3 31  1  0  0  0  0
  4  5  1  0  0  0  0
  4  8  2  0  0  0  0
  5  6  1  0  0  0  0
  5 12  2  0  0  0  0
  6  7  2  0  0  0  0
  6 41  1  0  0  0  0
  7 13  1  0  0  0  0
  7 14  1  0  0  0  0
  8 13  1  0  0  0  0
  8 42  1  0  0  0  0
  9 11  1  0  0  0  0
  9 43  1  0  0  0  0
  9 44  1  0  0  0  0
  9 45  1  0  0  0  0
 10 11  1  0  0  0  0
 10 46  1  0  0  0  0
 10 47  1  0  0  0  0
 10 48  1  0  0  0  0
 11 12  1  0  0  0  0
 11 49  1  0  0  0  0
 14 50  1  0  0  0  0
 15 16  1  0  0  0  0
 15 51  1  0  0  0  0
 16 17  2  0  0  0  0
 16 52  1  0  0  0  0
 17 18  1  0  0  0  0
 18 19  2  0  0  0  0
 18 20  1  0  0  0  0
 20 21  1  0  0  0  0
 20 24  2  0  0  0  0
 21 22  2  0  0  0  0
 21 53  1  0  0  0  0
 22 23  1  0  0  0  0
 23 24  1  0  0  0  0
 23 25  1  0  0  0  0
 24 54  1  0  0  0  0
 25 26  2  0  0  0  0
 25 27  2  0  0  0  0
 25 28  1  0  0  0  0
 28 29  1  0  0  0  0
 28 30  1  0  0  0  0
 28 55  1  0  0  0  0
 29 30  1  0  0  0  0
 29 56  1  0  0  0  0
 29 57  1  0  0  0  0
 30 58  1  0  0  0  0
 30 59  1  0  0  0  0
 31 32  2  0  0  0  0
 31 33  1  0  0  0  0
 33 34  1  0  0  0  0
 33 60  1  0  0  0  0
 34 35  1  0  0  0  0
 34 39  1  0  0  0  0
 34 61  1  0  0  0  0
 35 36  1  0  0  0  0
 35 62  1  0  0  0  0
 35 63  1  0  0  0  0
 36 37  1  0  0  0  0
 36 64  1  0  0  0  0
 36 65  1  0  0  0  0
 37 38  1  0  0  0  0
 38 39  1  0  0  0  0
 38 66  1  0  0  0  0
 38 67  1  0  0  0  0
 39 68  1  0  0  0  0
 39 69  1  0  0  0  0
M  CHG  2  12   1  23   1
M  END
$$$$
