62X
 OpenBabel04161910313D

 66 68  0  0  1  0  0  0  0  0999 V2000
   12.8959  -10.6113  -17.4419 C   0  0  0  0  0  0  0  0  0  0  0  0
   12.9266  -11.2183  -18.8274 C   0  0  0  0  0  0  0  0  0  0  0  0
   12.3508  -12.6338  -18.8145 C   0  0  0  0  0  0  0  0  0  0  0  0
   11.4156  -12.7502  -21.1691 C   0  0  0  0  0  0  0  0  0  0  0  0
   10.4453  -15.0649  -21.8639 C   0  0  2  0  0  0  0  0  0  0  0  0
   13.8398  -13.3475  -20.7280 C   0  0  0  0  0  0  0  0  0  0  0  0
   15.6319  -14.6449  -21.8840 C   0  0  2  0  0  0  0  0  0  0  0  0
   14.3865  -12.3869  -24.4414 C   0  0  0  0  0  0  0  0  0  0  0  0
   15.3410  -12.3751  -26.3546 C   0  0  0  0  0  0  0  0  0  0  0  0
   13.1789   -8.6774  -15.9687 C   0  0  0  0  0  0  0  0  0  0  0  0
   13.0562   -9.1225  -17.4165 N   0  3  0  0  0  0  0  0  0  0  0  0
   14.2526   -8.6491  -18.1809 C   0  0  0  0  0  0  0  0  0  0  0  0
   12.4150  -13.2940  -20.1834 N   0  3  1  0  0  0  0  0  0  0  0  0
   10.1981  -13.6264  -21.4153 C   0  0  0  0  0  0  0  0  0  0  0  0
   10.4021  -15.0772  -23.3560 N   0  3  0  0  0  0  0  0  0  0  0  0
    9.4204  -16.0806  -21.2569 C   0  0  0  0  0  0  0  0  0  0  0  0
    8.9480  -16.8752  -22.1198 O   0  0  0  0  0  0  0  0  0  0  0  0
    9.2190  -15.8922  -20.0388 O   0  0  0  0  0  0  0  0  0  0  0  0
   14.1375  -14.5669  -21.5961 C   0  0  2  0  0  0  0  0  0  0  0  0
   13.4509  -14.4542  -22.8585 O   0  0  0  0  0  0  0  0  0  0  0  0
   14.3974  -14.8519  -23.9089 C   0  0  2  0  0  0  0  0  0  0  0  0
   15.6600  -15.3582  -23.2180 C   0  0  2  0  0  0  0  0  0  0  0  0
   15.5401  -16.7621  -23.0217 O   0  0  0  0  0  0  0  0  0  0  0  0
   16.2824  -15.3610  -20.8505 O   0  0  0  0  0  0  0  0  0  0  0  0
   14.6594  -13.6922  -24.7411 N   0  3  0  0  0  0  0  0  0  0  0  0
   14.7755  -11.5713  -25.3808 N   0  0  0  0  0  0  0  0  0  0  0  0
   15.9300  -12.1263  -27.5870 C   0  0  0  0  0  0  0  0  0  0  0  0
   16.0450  -10.8252  -28.0892 N   0  0  0  0  0  0  0  0  0  0  0  0
   16.4033  -13.1552  -28.3147 N   0  0  0  0  0  0  0  0  0  0  0  0
   16.2831  -14.4069  -27.8131 C   0  0  0  0  0  0  0  0  0  0  0  0
   15.7342  -14.7720  -26.6298 N   0  0  0  0  0  0  0  0  0  0  0  0
   15.2790  -13.7147  -25.9576 C   0  0  0  0  0  0  0  0  0  0  0  0
   13.7330  -10.9987  -16.8549 H   0  0  0  0  0  0  0  0  0  0  0  0
   11.9388  -10.8085  -16.9620 H   0  0  0  0  0  0  0  0  0  0  0  0
   13.9714  -11.2633  -19.1601 H   0  0  0  0  0  0  0  0  0  0  0  0
   12.3532  -10.6015  -19.5232 H   0  0  0  0  0  0  0  0  0  0  0  0
   11.2954  -12.6240  -18.5257 H   0  0  0  0  0  0  0  0  0  0  0  0
   12.9188  -13.2841  -18.1400 H   0  0  0  0  0  0  0  0  0  0  0  0
   11.9489  -12.5934  -22.1051 H   0  0  0  0  0  0  0  0  0  0  0  0
   11.0753  -11.7819  -20.7873 H   0  0  0  0  0  0  0  0  0  0  0  0
   11.4614  -15.3726  -21.6066 H   0  0  0  0  0  0  0  0  0  0  0  0
   14.5021  -13.3433  -19.8634 H   0  0  0  0  0  0  0  0  0  0  0  0
   13.9617  -12.4311  -21.3107 H   0  0  0  0  0  0  0  0  0  0  0  0
   16.0818  -13.6466  -21.9568 H   0  0  0  0  0  0  0  0  0  0  0  0
   13.8968  -12.0774  -23.5268 H   0  0  0  0  0  0  0  0  0  0  0  0
   13.2730   -7.5917  -15.9516 H   0  0  0  0  0  0  0  0  0  0  0  0
   14.0705   -9.1568  -15.5581 H   0  0  0  0  0  0  0  0  0  0  0  0
   12.2836   -9.0058  -15.4378 H   0  0  0  0  0  0  0  0  0  0  0  0
   14.1226   -8.9609  -19.2138 H   0  0  0  0  0  0  0  0  0  0  0  0
   15.1304   -9.1195  -17.7379 H   0  0  0  0  0  0  0  0  0  0  0  0
   14.3006   -7.5640  -18.1104 H   0  0  0  0  0  0  0  0  0  0  0  0
    9.6178  -13.0968  -22.1868 H   0  0  0  0  0  0  0  0  0  0  0  0
    9.6023  -13.6346  -20.5072 H   0  0  0  0  0  0  0  0  0  0  0  0
   10.5165  -16.0690  -23.6449 H   0  0  0  0  0  0  0  0  0  0  0  0
    9.4326  -14.8481  -23.6382 H   0  0  0  0  0  0  0  0  0  0  0  0
   13.7969  -15.4768  -21.0853 H   0  0  0  0  0  0  0  0  0  0  0  0
   13.9111  -15.6334  -24.5082 H   0  0  0  0  0  0  0  0  0  0  0  0
   16.5609  -15.1462  -23.7950 H   0  0  0  0  0  0  0  0  0  0  0  0
   16.3599  -17.0776  -22.5890 H   0  0  0  0  0  0  0  0  0  0  0  0
   17.2100  -15.5277  -21.1210 H   0  0  0  0  0  0  0  0  0  0  0  0
   16.4713  -10.6840  -28.9800 H   0  0  0  0  0  0  0  0  0  0  0  0
   15.6840  -10.0742  -27.5282 H   0  0  0  0  0  0  0  0  0  0  0  0
   16.6763  -15.2074  -28.4328 H   0  0  0  0  0  0  0  0  0  0  0  0
   12.2104   -8.6639  -17.7951 H   0  0  0  0  0  0  0  0  0  0  0  0
   12.1419  -14.2726  -19.9821 H   0  0  0  0  0  0  0  0  0  0  0  0
   11.0885  -14.4736  -23.7765 H   0  0  0  0  0  0  0  0  0  0  0  0
  1  2  1  0  0  0  0
  1 11  1  0  0  0  0
  1 33  1  0  0  0  0
  1 34  1  0  0  0  0
  2  3  1  0  0  0  0
  2 35  1  0  0  0  0
  2 36  1  0  0  0  0
  3 13  1  0  0  0  0
  3 37  1  0  0  0  0
  3 38  1  0  0  0  0
  4 13  1  0  0  0  0
  4 14  1  0  0  0  0
  4 39  1  0  0  0  0
  4 40  1  0  0  0  0
  5 14  1  0  0  0  0
  5 15  1  0  0  0  0
  5 16  1  0  0  0  0
  5 41  1  1  0  0  0
  6 13  1  0  0  0  0
  6 19  1  0  0  0  0
  6 42  1  0  0  0  0
  6 43  1  0  0  0  0
  7 19  1  0  0  0  0
  7 22  1  0  0  0  0
  7 24  1  0  0  0  0
  7 44  1  6  0  0  0
  8 25  2  0  0  0  0
  8 26  1  0  0  0  0
  8 45  1  0  0  0  0
  9 26  1  0  0  0  0
  9 27  2  0  0  0  0
  9 32  1  0  0  0  0
 10 11  1  0  0  0  0
 10 46  1  0  0  0  0
 10 47  1  0  0  0  0
 10 48  1  0  0  0  0
 11 12  1  0  0  0  0
 11 64  1  0  0  0  0
 12 49  1  0  0  0  0
 12 50  1  0  0  0  0
 12 51  1  0  0  0  0
 13 65  1  1  0  0  0
 14 52  1  0  0  0  0
 14 53  1  0  0  0  0
 15 54  1  0  0  0  0
 15 55  1  0  0  0  0
 15 66  1  0  0  0  0
 16 17  2  0  0  0  0
 16 18  1  0  0  0  0
 19 20  1  0  0  0  0
 19 56  1  1  0  0  0
 20 21  1  0  0  0  0
 21 22  1  0  0  0  0
 21 25  1  0  0  0  0
 21 57  1  6  0  0  0
 22 23  1  0  0  0  0
 22 58  1  6  0  0  0
 23 59  1  0  0  0  0
 24 60  1  0  0  0  0
 25 32  1  0  0  0  0
 27 28  1  0  0  0  0
 27 29  1  0  0  0  0
 28 61  1  0  0  0  0
 28 62  1  0  0  0  0
 29 30  2  0  0  0  0
 30 31  1  0  0  0  0
 30 63  1  0  0  0  0
 31 32  2  0  0  0  0
M  CHG  4  11   1  13   1  15   1  25   1
M  END
$$$$
