64E
 OpenBabel04161910323D

 29 31  0  0  0  0  0  0  0  0999 V2000
   14.8420   -9.5624   -7.7429 C   0  0  0  0  0  0  0  0  0  0  0  0
   14.2651   -9.5674   -9.0506 C   0  0  0  0  0  0  0  0  0  0  0  0
   14.5416   -8.5964  -10.0118 C   0  0  0  0  0  0  0  0  0  0  0  0
   13.9388   -8.6596  -11.2672 C   0  0  0  0  0  0  0  0  0  0  0  0
   13.0501   -9.6912  -11.5618 C   0  0  0  0  0  0  0  0  0  0  0  0
   12.7721  -10.6697  -10.6048 C   0  0  0  0  0  0  0  0  0  0  0  0
   13.3881  -10.6145   -9.3497 C   0  0  0  0  0  0  0  0  0  0  0  0
   13.1014  -11.6792   -8.3255 C   0  0  0  0  0  0  0  0  0  0  0  0
   12.3473  -12.6116   -8.6140 O   0  0  0  0  0  0  0  0  0  0  0  0
   13.6814  -11.6021   -7.0923 O   0  3  0  0  0  0  0  0  0  0  0  0
   14.4858  -10.5770   -6.8944 C   0  0  0  0  0  0  0  0  0  0  0  0
   15.1400  -10.3532   -5.7270 N   0  3  0  0  0  0  0  0  0  0  0  0
   15.8942   -9.2490   -5.7646 N   0  0  0  0  0  0  0  0  0  0  0  0
   15.7211   -8.7563   -7.0036 C   0  0  0  0  0  0  0  0  0  0  0  0
   16.4140   -7.5048   -7.4153 C   0  0  0  0  0  0  0  0  0  0  0  0
   17.2564   -6.9615   -6.2715 C   0  0  0  0  0  0  0  0  0  0  0  0
   17.9568   -5.6792   -6.6343 C   0  0  0  0  0  0  0  0  0  0  0  0
   15.2207   -7.7777   -9.8015 H   0  0  0  0  0  0  0  0  0  0  0  0
   14.1594   -7.8955  -12.0079 H   0  0  0  0  0  0  0  0  0  0  0  0
   12.5710   -9.7281  -12.5377 H   0  0  0  0  0  0  0  0  0  0  0  0
   12.0698  -11.4681  -10.8415 H   0  0  0  0  0  0  0  0  0  0  0  0
   15.1318  -10.8956   -4.8712 H   0  0  0  0  0  0  0  0  0  0  0  0
   15.6719   -6.7547   -7.7206 H   0  0  0  0  0  0  0  0  0  0  0  0
   17.0506   -7.7016   -8.2885 H   0  0  0  0  0  0  0  0  0  0  0  0
   18.0002   -7.7171   -5.9855 H   0  0  0  0  0  0  0  0  0  0  0  0
   16.6108   -6.7904   -5.3995 H   0  0  0  0  0  0  0  0  0  0  0  0
   18.5446   -5.3330   -5.7795 H   0  0  0  0  0  0  0  0  0  0  0  0
   17.2281   -4.9060   -6.8934 H   0  0  0  0  0  0  0  0  0  0  0  0
   18.6281   -5.8331   -7.4824 H   0  0  0  0  0  0  0  0  0  0  0  0
  1  2  1  0  0  0  0
  1 11  1  0  0  0  0
  1 14  2  0  0  0  0
  2  3  2  0  0  0  0
  2  7  1  0  0  0  0
  3  4  1  0  0  0  0
  3 18  1  0  0  0  0
  4  5  2  0  0  0  0
  4 19  1  0  0  0  0
  5  6  1  0  0  0  0
  5 20  1  0  0  0  0
  6  7  2  0  0  0  0
  6 21  1  0  0  0  0
  7  8  1  0  0  0  0
  8  9  2  0  0  0  0
  8 10  1  0  0  0  0
 10 11  1  0  0  0  0
 11 12  2  0  0  0  0
 12 13  1  0  0  0  0
 12 22  1  0  0  0  0
 13 14  1  0  0  0  0
 14 15  1  0  0  0  0
 15 16  1  0  0  0  0
 15 23  1  0  0  0  0
 15 24  1  0  0  0  0
 16 17  1  0  0  0  0
 16 25  1  0  0  0  0
 16 26  1  0  0  0  0
 17 27  1  0  0  0  0
 17 28  1  0  0  0  0
 17 29  1  0  0  0  0
M  CHG  2  10   1  12   1
M  END
$$$$
