65X
 OpenBabel04161910333D

 46 50  0  0  0  0  0  0  0  0999 V2000
  -13.3053    7.2828   -9.8406 C   0  0  0  0  0  0  0  0  0  0  0  0
  -12.3269    8.2185  -10.4293 C   0  0  0  0  0  0  0  0  0  0  0  0
  -10.0450    9.0468  -10.6052 C   0  0  0  0  0  0  0  0  0  0  0  0
  -11.7892   10.0616  -11.9268 C   0  0  0  0  0  0  0  0  0  0  0  0
  -12.7221    9.1812  -11.3727 C   0  0  0  0  0  0  0  0  0  0  0  0
  -13.7647    8.8993   -7.9585 C   0  0  0  0  0  0  0  0  0  0  0  0
  -14.8999    6.6741   -5.7085 C   0  0  0  0  0  0  0  0  0  0  0  0
  -15.2893    7.7273   -4.6716 C   0  0  0  0  0  0  0  0  0  0  0  0
  -16.8103    7.8573   -4.5555 C   0  0  0  0  0  0  0  0  0  0  0  0
  -17.4636    8.0743   -5.9236 C   0  0  0  0  0  0  0  0  0  0  0  0
  -17.0362    6.9944   -6.9237 C   0  0  0  0  0  0  0  0  0  0  0  0
  -13.3180    4.4089  -12.2634 C   0  0  0  0  0  0  0  0  0  0  0  0
  -14.2544    3.5833  -11.6623 C   0  0  0  0  0  0  0  0  0  0  0  0
  -14.8734    3.9943  -10.4781 C   0  0  0  0  0  0  0  0  0  0  0  0
  -14.5776    5.2137   -9.8788 C   0  0  0  0  0  0  0  0  0  0  0  0
  -13.6103    6.0501  -10.4768 C   0  0  0  0  0  0  0  0  0  0  0  0
  -12.9941    5.6296  -11.6807 C   0  0  0  0  0  0  0  0  0  0  0  0
  -15.2314    5.5308   -8.7517 N   0  0  0  0  0  0  0  0  0  0  0  0
  -14.9439    6.7036   -8.1377 C   0  0  0  0  0  0  0  0  0  0  0  0
  -13.9936    7.5908   -8.6541 C   0  0  0  0  0  0  0  0  0  0  0  0
  -10.9758    8.1648  -10.0540 C   0  0  0  0  0  0  0  0  0  0  0  0
  -10.4512    9.9934  -11.5431 C   0  0  0  0  0  0  0  0  0  0  0  0
  -15.5922    6.9721   -6.9507 N   0  0  0  0  0  0  0  0  0  0  0  0
  -12.5562    3.9279  -13.7274 Cl  0  0  0  0  0  0  0  0  0  0  0  0
  -14.6694    9.9143   -7.9323 N   0  0  0  0  0  0  0  0  0  0  0  0
  -14.0805   10.8719   -7.1823 N   0  0  0  0  0  0  0  0  0  0  0  0
  -12.8659   10.4428   -6.7747 N   0  0  0  0  0  0  0  0  0  0  0  0
  -12.6333    9.2059   -7.2744 N   0  0  0  0  0  0  0  0  0  0  0  0
   -9.0114    9.0130  -10.2741 H   0  0  0  0  0  0  0  0  0  0  0  0
  -12.1146   10.8188  -12.6340 H   0  0  0  0  0  0  0  0  0  0  0  0
  -13.7687    9.2679  -11.6558 H   0  0  0  0  0  0  0  0  0  0  0  0
  -15.1965    5.6779   -5.3560 H   0  0  0  0  0  0  0  0  0  0  0  0
  -13.8096    6.6610   -5.8253 H   0  0  0  0  0  0  0  0  0  0  0  0
  -14.8700    8.6983   -4.9604 H   0  0  0  0  0  0  0  0  0  0  0  0
  -14.8588    7.4705   -3.6976 H   0  0  0  0  0  0  0  0  0  0  0  0
  -17.0589    8.6902   -3.8892 H   0  0  0  0  0  0  0  0  0  0  0  0
  -17.2171    6.9455   -4.1025 H   0  0  0  0  0  0  0  0  0  0  0  0
  -17.1698    9.0610   -6.3045 H   0  0  0  0  0  0  0  0  0  0  0  0
  -18.5541    8.0803   -5.8224 H   0  0  0  0  0  0  0  0  0  0  0  0
  -17.4575    7.2358   -7.9074 H   0  0  0  0  0  0  0  0  0  0  0  0
  -17.4278    6.0164   -6.6202 H   0  0  0  0  0  0  0  0  0  0  0  0
  -14.5143    2.6247  -12.1025 H   0  0  0  0  0  0  0  0  0  0  0  0
  -15.6078    3.3458  -10.0073 H   0  0  0  0  0  0  0  0  0  0  0  0
  -12.2558    6.2630  -12.1674 H   0  0  0  0  0  0  0  0  0  0  0  0
  -10.6549    7.4590   -9.2911 H   0  0  0  0  0  0  0  0  0  0  0  0
   -9.7316   10.6974  -11.9498 H   0  0  0  0  0  0  0  0  0  0  0  0
  1  2  1  0  0  0  0
  1 16  2  0  0  0  0
  1 20  1  0  0  0  0
  2  5  2  0  0  0  0
  2 21  1  0  0  0  0
  3 21  2  0  0  0  0
  3 22  1  0  0  0  0
  3 29  1  0  0  0  0
  4  5  1  0  0  0  0
  4 22  2  0  0  0  0
  4 30  1  0  0  0  0
  5 31  1  0  0  0  0
  6 20  1  0  0  0  0
  6 25  1  0  0  0  0
  6 28  2  0  0  0  0
  7  8  1  0  0  0  0
  7 23  1  0  0  0  0
  7 32  1  0  0  0  0
  7 33  1  0  0  0  0
  8  9  1  0  0  0  0
  8 34  1  0  0  0  0
  8 35  1  0  0  0  0
  9 10  1  0  0  0  0
  9 36  1  0  0  0  0
  9 37  1  0  0  0  0
 10 11  1  0  0  0  0
 10 38  1  0  0  0  0
 10 39  1  0  0  0  0
 11 23  1  0  0  0  0
 11 40  1  0  0  0  0
 11 41  1  0  0  0  0
 12 13  1  0  0  0  0
 12 17  2  0  0  0  0
 12 24  1  0  0  0  0
 13 14  2  0  0  0  0
 13 42  1  0  0  0  0
 14 15  1  0  0  0  0
 14 43  1  0  0  0  0
 15 16  1  0  0  0  0
 15 18  2  0  0  0  0
 16 17  1  0  0  0  0
 17 44  1  0  0  0  0
 18 19  1  0  0  0  0
 19 20  2  0  0  0  0
 19 23  1  0  0  0  0
 21 45  1  0  0  0  0
 22 46  1  0  0  0  0
 25 26  1  0  0  0  0
 26 27  2  0  0  0  0
 27 28  1  0  0  0  0
M  END
$$$$
