65Z
 OpenBabel04161910343D

 44 47  0  0  0  0  0  0  0  0999 V2000
    6.3039   -8.6175  -17.5078 N   0  0  0  0  0  0  0  0  0  0  0  0
    7.6749   -8.9650  -17.8918 C   0  0  0  0  0  0  0  0  0  0  0  0
    8.5234   -9.1320  -16.6262 C   0  0  0  0  0  0  0  0  0  0  0  0
    7.8892  -10.0750  -15.6022 C   0  0  0  0  0  0  0  0  0  0  0  0
    6.4045   -9.7880  -15.3876 C   0  0  0  0  0  0  0  0  0  0  0  0
    5.6618   -9.6721  -16.7162 C   0  0  0  0  0  0  0  0  0  0  0  0
    3.9335   -6.8373  -23.1538 C   0  0  0  0  0  0  0  0  0  0  0  0
    5.1544   -7.4684  -23.2924 C   0  0  0  0  0  0  0  0  0  0  0  0
    5.8124   -7.9319  -22.1500 C   0  0  0  0  0  0  0  0  0  0  0  0
    3.3907   -6.6525  -21.8873 C   0  0  0  0  0  0  0  0  0  0  0  0
    4.0647   -7.0948  -20.7163 C   0  0  0  0  0  0  0  0  0  0  0  0
    5.2918   -7.7686  -20.8566 C   0  0  0  0  0  0  0  0  0  0  0  0
    5.9636   -8.2483  -19.7957 N   0  0  0  0  0  0  0  0  0  0  0  0
    5.5024   -8.0882  -18.5289 C   0  0  0  0  0  0  0  0  0  0  0  0
    4.3126   -7.3913  -18.2951 C   0  0  0  0  0  0  0  0  0  0  0  0
    3.5715   -6.8880  -19.3972 C   0  0  0  0  0  0  0  0  0  0  0  0
    7.3341   -8.7349  -22.4023 Cl  0  0  0  0  0  0  0  0  0  0  0  0
    3.0896   -6.2847  -24.5467 Cl  0  0  0  0  0  0  0  0  0  0  0  0
    3.8420   -7.0922  -16.9051 C   0  0  0  0  0  0  0  0  0  0  0  0
    2.9601   -7.8740  -16.4204 O   0  0  0  0  0  0  0  0  0  0  0  0
    4.3176   -6.0563  -16.3410 O   0  0  0  0  0  0  0  0  0  0  0  0
    2.3333   -6.1012  -19.1726 C   0  0  0  0  0  0  0  0  0  0  0  0
    2.3174   -4.7178  -19.4244 C   0  0  0  0  0  0  0  0  0  0  0  0
    0.0075   -4.5745  -18.7401 C   0  0  0  0  0  0  0  0  0  0  0  0
    0.0050   -5.9429  -18.4754 C   0  0  0  0  0  0  0  0  0  0  0  0
    1.1633   -3.9619  -19.2196 C   0  0  0  0  0  0  0  0  0  0  0  0
    1.1563   -6.7026  -18.6903 C   0  0  0  0  0  0  0  0  0  0  0  0
    8.1376   -8.1792  -18.5027 H   0  0  0  0  0  0  0  0  0  0  0  0
    7.6893   -9.8970  -18.4731 H   0  0  0  0  0  0  0  0  0  0  0  0
    8.6674   -8.1486  -16.1614 H   0  0  0  0  0  0  0  0  0  0  0  0
    9.5185   -9.5044  -16.8969 H   0  0  0  0  0  0  0  0  0  0  0  0
    8.4202   -9.9896  -14.6469 H   0  0  0  0  0  0  0  0  0  0  0  0
    8.0094  -11.1115  -15.9411 H   0  0  0  0  0  0  0  0  0  0  0  0
    6.2926   -8.8533  -14.8237 H   0  0  0  0  0  0  0  0  0  0  0  0
    5.9582  -10.5857  -14.7834 H   0  0  0  0  0  0  0  0  0  0  0  0
    5.7074  -10.6253  -17.2596 H   0  0  0  0  0  0  0  0  0  0  0  0
    4.6094   -9.4986  -16.5058 H   0  0  0  0  0  0  0  0  0  0  0  0
    5.5942   -7.6101  -24.2746 H   0  0  0  0  0  0  0  0  0  0  0  0
    2.4255   -6.1559  -21.8062 H   0  0  0  0  0  0  0  0  0  0  0  0
    3.2258   -4.2220  -19.7633 H   0  0  0  0  0  0  0  0  0  0  0  0
   -0.8796   -3.9812  -18.5388 H   0  0  0  0  0  0  0  0  0  0  0  0
   -0.8785   -6.4204  -18.0622 H   0  0  0  0  0  0  0  0  0  0  0  0
    1.1785   -2.8920  -19.4061 H   0  0  0  0  0  0  0  0  0  0  0  0
    1.1572   -7.7633  -18.4374 H   0  0  0  0  0  0  0  0  0  0  0  0
  1  2  1  0  0  0  0
  1  6  1  0  0  0  0
  1 14  1  0  0  0  0
  2  3  1  0  0  0  0
  2 28  1  0  0  0  0
  2 29  1  0  0  0  0
  3  4  1  0  0  0  0
  3 30  1  0  0  0  0
  3 31  1  0  0  0  0
  4  5  1  0  0  0  0
  4 32  1  0  0  0  0
  4 33  1  0  0  0  0
  5  6  1  0  0  0  0
  5 34  1  0  0  0  0
  5 35  1  0  0  0  0
  6 36  1  0  0  0  0
  6 37  1  0  0  0  0
  7  8  2  0  0  0  0
  7 10  1  0  0  0  0
  7 18  1  0  0  0  0
  8  9  1  0  0  0  0
  8 38  1  0  0  0  0
  9 12  2  0  0  0  0
  9 17  1  0  0  0  0
 10 11  2  0  0  0  0
 10 39  1  0  0  0  0
 11 12  1  0  0  0  0
 11 16  1  0  0  0  0
 12 13  1  0  0  0  0
 13 14  2  0  0  0  0
 14 15  1  0  0  0  0
 15 16  2  0  0  0  0
 15 19  1  0  0  0  0
 16 22  1  0  0  0  0
 19 20  2  0  0  0  0
 19 21  1  0  0  0  0
 22 23  2  0  0  0  0
 22 27  1  0  0  0  0
 23 26  1  0  0  0  0
 23 40  1  0  0  0  0
 24 25  1  0  0  0  0
 24 26  2  0  0  0  0
 24 41  1  0  0  0  0
 25 27  2  0  0  0  0
 25 42  1  0  0  0  0
 26 43  1  0  0  0  0
 27 44  1  0  0  0  0
M  END
$$$$
