66J
 OpenBabel04161910323D

 43 45  0  0  1  0  0  0  0  0999 V2000
   26.4110   10.7851   19.8297 C   0  0  0  0  0  0  0  0  0  0  0  0
   22.2147    9.9149   23.7655 C   0  0  0  0  0  0  0  0  0  0  0  0
   20.4249    9.5370   20.5562 C   0  0  0  0  0  0  0  0  0  0  0  0
   23.2463   11.8796   24.9812 C   0  0  0  0  0  0  0  0  0  0  0  0
   24.0915   11.7197   19.1935 C   0  0  0  0  0  0  0  0  0  0  0  0
   24.9480   10.9198   19.9151 C   0  0  0  0  0  0  0  0  0  0  0  0
   29.2231    9.5399   21.8680 C   0  0  0  0  0  0  0  0  0  0  0  0
   22.7395   11.6240   19.6338 C   0  0  0  0  0  0  0  0  0  0  0  0
   30.5370    8.3479   23.8644 C   0  0  0  0  0  0  0  0  0  0  0  0
   21.3454   10.3485   21.4816 C   0  0  1  0  0  0  0  0  0  0  0  0
   27.1321   10.1696   20.8528 C   0  0  0  0  0  0  0  0  0  0  0  0
   29.1496   10.7357   19.7532 C   0  0  0  0  0  0  0  0  0  0  0  0
   27.1439   11.3281   18.7922 C   0  0  0  0  0  0  0  0  0  0  0  0
   22.5839   10.7401   20.6779 C   0  0  0  0  0  0  0  0  0  0  0  0
   20.5432   11.5366   21.9489 C   0  0  0  0  0  0  0  0  0  0  0  0
   28.5122   10.1445   20.8181 C   0  0  0  0  0  0  0  0  0  0  0  0
   28.5030   11.3311   18.7219 N   0  0  0  0  0  0  0  0  0  0  0  0
   21.4973   12.4797   23.0993 S   0  0  0  0  0  0  0  0  0  0  0  0
   22.3563   11.3018   23.9518 N   0  0  0  0  0  0  0  0  0  0  0  0
   21.5648    9.5111   22.6568 N   0  0  0  0  0  0  0  0  0  0  0  0
   22.7017    9.0939   24.6372 N   0  0  0  0  0  0  0  0  0  0  0  0
   20.5743   13.1224   24.0003 O   0  0  0  0  0  0  0  0  0  0  0  0
   22.4489   13.3024   22.3591 O   0  0  0  0  0  0  0  0  0  0  0  0
   24.0821   10.0321   21.0850 S   0  0  0  0  0  0  0  0  0  0  0  0
   21.5174   12.5693   18.8863 Cl  0  0  0  0  0  0  0  0  0  0  0  0
   29.8088    9.0033   22.7836 C   0  0  0  0  0  0  0  0  0  0  0  0
   19.5206    9.2395   21.1011 H   0  0  0  0  0  0  0  0  0  0  0  0
   20.9310    8.6287   20.2092 H   0  0  0  0  0  0  0  0  0  0  0  0
   20.1192   10.1231   19.6814 H   0  0  0  0  0  0  0  0  0  0  0  0
   23.7953   11.0955   25.5128 H   0  0  0  0  0  0  0  0  0  0  0  0
   22.6679   12.4479   25.7175 H   0  0  0  0  0  0  0  0  0  0  0  0
   23.9862   12.5441   24.5185 H   0  0  0  0  0  0  0  0  0  0  0  0
   24.4213   12.3798   18.4092 H   0  0  0  0  0  0  0  0  0  0  0  0
   30.0673    8.5584   24.8280 H   0  0  0  0  0  0  0  0  0  0  0  0
   31.5674    8.7099   23.8858 H   0  0  0  0  0  0  0  0  0  0  0  0
   30.5465    7.2673   23.7035 H   0  0  0  0  0  0  0  0  0  0  0  0
   26.6196    9.7347   21.7018 H   0  0  0  0  0  0  0  0  0  0  0  0
   30.2387   10.7457   19.7079 H   0  0  0  0  0  0  0  0  0  0  0  0
   26.6356   11.8038   17.9553 H   0  0  0  0  0  0  0  0  0  0  0  0
   19.6382   11.1920   22.4650 H   0  0  0  0  0  0  0  0  0  0  0  0
   20.2334   12.1780   21.1239 H   0  0  0  0  0  0  0  0  0  0  0  0
   21.2449    8.5506   22.5958 H   0  0  0  0  0  0  0  0  0  0  0  0
   22.5473    8.1243   24.3675 H   0  0  0  0  0  0  0  0  0  0  0  0
  1  6  1  0  0  0  0
  1 11  2  0  0  0  0
  1 13  1  0  0  0  0
  2 19  1  0  0  0  0
  2 20  1  0  0  0  0
  2 21  2  0  0  0  0
  3 27  1  0  0  0  0
  3 28  1  0  0  0  0
  3 29  1  0  0  0  0
  4 19  1  0  0  0  0
  4 30  1  0  0  0  0
  4 31  1  0  0  0  0
  4 32  1  0  0  0  0
  5  6  2  0  0  0  0
  5  8  1  0  0  0  0
  5 33  1  0  0  0  0
  6 24  1  0  0  0  0
  7 16  1  0  0  0  0
  7 26  3  0  0  0  0
  8 14  2  0  0  0  0
  8 25  1  0  0  0  0
  9 26  1  0  0  0  0
  9 34  1  0  0  0  0
  9 35  1  0  0  0  0
  9 36  1  0  0  0  0
 10  3  1  6  0  0  0
 10 14  1  0  0  0  0
 10 15  1  0  0  0  0
 10 20  1  0  0  0  0
 11 16  1  0  0  0  0
 11 37  1  0  0  0  0
 12 16  2  0  0  0  0
 12 17  1  0  0  0  0
 12 38  1  0  0  0  0
 13 17  2  0  0  0  0
 13 39  1  0  0  0  0
 14 24  1  0  0  0  0
 15 18  1  0  0  0  0
 15 40  1  0  0  0  0
 15 41  1  0  0  0  0
 18 19  1  0  0  0  0
 18 22  2  0  0  0  0
 18 23  2  0  0  0  0
 20 42  1  0  0  0  0
 21 43  1  0  0  0  0
M  END
$$$$
