66K
 OpenBabel04161910323D

 80 84  0  0  0  0  0  0  0  0999 V2000
   -9.4466  -22.3820  -12.3618 C   0  0  0  0  0  0  0  0  0  0  0  0
   -9.4768  -22.0370  -10.8674 C   0  0  0  0  0  0  0  0  0  0  0  0
  -10.4987  -21.0188  -10.5791 N   0  0  0  0  0  0  0  0  0  0  0  0
  -10.4900  -20.6799   -9.1609 C   0  0  0  0  0  0  0  0  0  0  0  0
  -11.8375  -21.4614  -10.9953 C   0  0  0  0  0  0  0  0  0  0  0  0
  -11.8658  -21.7369  -12.4970 C   0  0  0  0  0  0  0  0  0  0  0  0
  -10.8456  -22.7988  -12.8067 N   0  3  0  0  0  0  0  0  0  0  0  0
  -10.9353  -23.1824  -14.2380 C   0  0  0  0  0  0  0  0  0  0  0  0
  -10.0663  -24.3571  -14.5682 C   0  0  0  0  0  0  0  0  0  0  0  0
   -9.3870  -24.4005  -15.7993 C   0  0  0  0  0  0  0  0  0  0  0  0
   -9.5315  -23.2950  -16.8083 C   0  0  0  0  0  0  0  0  0  0  0  0
   -8.9986  -23.5624  -18.0188 F   0  0  0  0  0  0  0  0  0  0  0  0
   -8.9552  -22.1514  -16.3518 F   0  0  0  0  0  0  0  0  0  0  0  0
  -10.8446  -22.9955  -17.0064 F   0  0  0  0  0  0  0  0  0  0  0  0
   -8.5468  -25.4706  -16.0738 C   0  0  0  0  0  0  0  0  0  0  0  0
   -9.9436  -25.4166  -13.6595 C   0  0  0  0  0  0  0  0  0  0  0  0
   -9.0946  -26.4677  -13.9330 C   0  0  0  0  0  0  0  0  0  0  0  0
   -8.3891  -26.4955  -15.1365 C   0  0  0  0  0  0  0  0  0  0  0  0
   -7.4533  -27.5812  -15.4793 C   0  0  0  0  0  0  0  0  0  0  0  0
   -6.7103  -27.4153  -16.4160 O   0  0  0  0  0  0  0  0  0  0  0  0
   -7.5865  -28.7169  -14.7055 N   0  0  0  0  0  0  0  0  0  0  0  0
   -6.9507  -29.9142  -15.0100 C   0  0  0  0  0  0  0  0  0  0  0  0
   -5.7039  -29.9562  -15.6295 C   0  0  0  0  0  0  0  0  0  0  0  0
   -7.6229  -31.0780  -14.6605 C   0  0  0  0  0  0  0  0  0  0  0  0
   -7.0500  -32.3025  -14.9512 C   0  0  0  0  0  0  0  0  0  0  0  0
   -5.7985  -32.3477  -15.5510 C   0  0  0  0  0  0  0  0  0  0  0  0
   -5.1802  -33.6782  -15.8729 C   0  0  0  0  0  0  0  0  0  0  0  0
   -5.1143  -31.1822  -15.8869 C   0  0  0  0  0  0  0  0  0  0  0  0
   -3.8921  -31.3915  -16.4335 O   0  0  0  0  0  0  0  0  0  0  0  0
   -3.2487  -30.2902  -17.0622 C   0  0  0  0  0  0  0  0  0  0  0  0
   -3.8793  -29.9877  -18.4195 C   0  0  0  0  0  0  0  0  0  0  0  0
   -3.6726  -31.1163  -19.4219 C   0  0  0  0  0  0  0  0  0  0  0  0
   -1.7884  -30.6794  -17.2197 C   0  0  0  0  0  0  0  0  0  0  0  0
   -1.6154  -31.7994  -18.2346 C   0  0  0  0  0  0  0  0  0  0  0  0
   -2.2617  -31.4601  -19.5073 N   0  0  0  0  0  0  0  0  0  0  0  0
   -1.6996  -31.6293  -20.7706 C   0  0  0  0  0  0  0  0  0  0  0  0
   -2.3315  -31.5665  -21.8215 O   0  0  0  0  0  0  0  0  0  0  0  0
   -0.2481  -31.8183  -20.8622 C   0  0  0  0  0  0  0  0  0  0  0  0
    0.6144  -30.9798  -20.1566 C   0  0  0  0  0  0  0  0  0  0  0  0
    1.9800  -31.1837  -20.2320 C   0  0  0  0  0  0  0  0  0  0  0  0
    2.4361  -32.1887  -21.0663 C   0  0  0  0  0  0  0  0  0  0  0  0
    1.6270  -32.9926  -21.8011 N   0  0  0  0  0  0  0  0  0  0  0  0
    0.2911  -32.7842  -21.6913 C   0  0  0  0  0  0  0  0  0  0  0  0
   -8.7683  -23.2252  -12.5237 H   0  0  0  0  0  0  0  0  0  0  0  0
   -9.1378  -21.5293  -12.9746 H   0  0  0  0  0  0  0  0  0  0  0  0
   -8.4839  -21.6712  -10.5844 H   0  0  0  0  0  0  0  0  0  0  0  0
   -9.6724  -22.9513  -10.2887 H   0  0  0  0  0  0  0  0  0  0  0  0
  -11.2417  -19.9127   -8.9532 H   0  0  0  0  0  0  0  0  0  0  0  0
   -9.5156  -20.2664   -8.8843 H   0  0  0  0  0  0  0  0  0  0  0  0
  -10.6953  -21.5559   -8.5370 H   0  0  0  0  0  0  0  0  0  0  0  0
  -12.5828  -20.6890  -10.7874 H   0  0  0  0  0  0  0  0  0  0  0  0
  -12.1270  -22.3736  -10.4550 H   0  0  0  0  0  0  0  0  0  0  0  0
  -11.6146  -20.8504  -13.0892 H   0  0  0  0  0  0  0  0  0  0  0  0
  -12.8390  -22.1353  -12.7999 H   0  0  0  0  0  0  0  0  0  0  0  0
  -10.6701  -22.2839  -14.7996 H   0  0  0  0  0  0  0  0  0  0  0  0
  -11.9736  -23.4551  -14.4519 H   0  0  0  0  0  0  0  0  0  0  0  0
   -8.0123  -25.5099  -17.0228 H   0  0  0  0  0  0  0  0  0  0  0  0
  -10.4668  -25.4388  -12.7087 H   0  0  0  0  0  0  0  0  0  0  0  0
   -8.9953  -27.2367  -13.1751 H   0  0  0  0  0  0  0  0  0  0  0  0
   -8.3317  -28.8001  -14.0368 H   0  0  0  0  0  0  0  0  0  0  0  0
   -5.1997  -29.0278  -15.8715 H   0  0  0  0  0  0  0  0  0  0  0  0
   -8.6235  -31.0493  -14.2282 H   0  0  0  0  0  0  0  0  0  0  0  0
   -7.5878  -33.2101  -14.7174 H   0  0  0  0  0  0  0  0  0  0  0  0
   -5.8417  -34.4867  -15.5594 H   0  0  0  0  0  0  0  0  0  0  0  0
   -4.2328  -33.7620  -15.3319 H   0  0  0  0  0  0  0  0  0  0  0  0
   -5.0210  -33.7400  -16.9430 H   0  0  0  0  0  0  0  0  0  0  0  0
   -3.2690  -29.4127  -16.4065 H   0  0  0  0  0  0  0  0  0  0  0  0
   -3.4168  -29.0754  -18.8067 H   0  0  0  0  0  0  0  0  0  0  0  0
   -4.9548  -29.8122  -18.3252 H   0  0  0  0  0  0  0  0  0  0  0  0
   -4.0444  -30.7841  -20.3973 H   0  0  0  0  0  0  0  0  0  0  0  0
   -4.2321  -32.0182  -19.1456 H   0  0  0  0  0  0  0  0  0  0  0  0
   -1.3807  -31.0156  -16.2588 H   0  0  0  0  0  0  0  0  0  0  0  0
   -1.2344  -29.7907  -17.5380 H   0  0  0  0  0  0  0  0  0  0  0  0
   -2.0348  -32.7469  -17.8796 H   0  0  0  0  0  0  0  0  0  0  0  0
   -0.5491  -31.9818  -18.3467 H   0  0  0  0  0  0  0  0  0  0  0  0
    0.2174  -30.1906  -19.5268 H   0  0  0  0  0  0  0  0  0  0  0  0
    2.6572  -30.5650  -19.6560 H   0  0  0  0  0  0  0  0  0  0  0  0
    3.5011  -32.3692  -21.1732 H   0  0  0  0  0  0  0  0  0  0  0  0
   -0.3443  -33.4276  -22.2962 H   0  0  0  0  0  0  0  0  0  0  0  0
  -11.1075  -23.6060  -12.2385 H   0  0  0  0  0  0  0  0  0  0  0  0
  1  2  1  0  0  0  0
  1  7  1  0  0  0  0
  1 44  1  0  0  0  0
  1 45  1  0  0  0  0
  2  3  1  0  0  0  0
  2 46  1  0  0  0  0
  2 47  1  0  0  0  0
  3  4  1  0  0  0  0
  3  5  1  0  0  0  0
  4 48  1  0  0  0  0
  4 49  1  0  0  0  0
  4 50  1  0  0  0  0
  5  6  1  0  0  0  0
  5 51  1  0  0  0  0
  5 52  1  0  0  0  0
  6  7  1  0  0  0  0
  6 53  1  0  0  0  0
  6 54  1  0  0  0  0
  7  8  1  0  0  0  0
  7 80  1  0  0  0  0
  8  9  1  0  0  0  0
  8 55  1  0  0  0  0
  8 56  1  0  0  0  0
  9 10  2  0  0  0  0
  9 16  1  0  0  0  0
 10 11  1  0  0  0  0
 10 15  1  0  0  0  0
 11 12  1  0  0  0  0
 11 13  1  0  0  0  0
 11 14  1  0  0  0  0
 15 18  2  0  0  0  0
 15 57  1  0  0  0  0
 16 17  2  0  0  0  0
 16 58  1  0  0  0  0
 17 18  1  0  0  0  0
 17 59  1  0  0  0  0
 18 19  1  0  0  0  0
 19 20  2  0  0  0  0
 19 21  1  0  0  0  0
 21 22  1  0  0  0  0
 21 60  1  0  0  0  0
 22 23  2  0  0  0  0
 22 24  1  0  0  0  0
 23 28  1  0  0  0  0
 23 61  1  0  0  0  0
 24 25  2  0  0  0  0
 24 62  1  0  0  0  0
 25 26  1  0  0  0  0
 25 63  1  0  0  0  0
 26 27  1  0  0  0  0
 26 28  2  0  0  0  0
 27 64  1  0  0  0  0
 27 65  1  0  0  0  0
 27 66  1  0  0  0  0
 28 29  1  0  0  0  0
 29 30  1  0  0  0  0
 30 31  1  0  0  0  0
 30 33  1  0  0  0  0
 30 67  1  0  0  0  0
 31 32  1  0  0  0  0
 31 68  1  0  0  0  0
 31 69  1  0  0  0  0
 32 35  1  0  0  0  0
 32 70  1  0  0  0  0
 32 71  1  0  0  0  0
 33 34  1  0  0  0  0
 33 72  1  0  0  0  0
 33 73  1  0  0  0  0
 34 35  1  0  0  0  0
 34 74  1  0  0  0  0
 34 75  1  0  0  0  0
 35 36  1  0  0  0  0
 36 37  2  0  0  0  0
 36 38  1  0  0  0  0
 38 39  2  0  0  0  0
 38 43  1  0  0  0  0
 39 40  1  0  0  0  0
 39 76  1  0  0  0  0
 40 41  2  0  0  0  0
 40 77  1  0  0  0  0
 41 42  1  0  0  0  0
 41 78  1  0  0  0  0
 42 43  2  0  0  0  0
 43 79  1  0  0  0  0
M  CHG  1   7   1
M  END
$$$$
