67B
 OpenBabel04161910363D

 39 41  0  0  0  0  0  0  0  0999 V2000
  -12.7919    6.0789    9.3068 C   0  0  0  0  0  0  0  0  0  0  0  0
  -13.2258    8.5037    9.2546 C   0  0  0  0  0  0  0  0  0  0  0  0
  -12.6469   10.7682    9.8984 C   0  0  0  0  0  0  0  0  0  0  0  0
  -13.1845    4.7682    9.5629 C   0  0  0  0  0  0  0  0  0  0  0  0
  -14.9539    6.8848   10.0766 C   0  0  0  0  0  0  0  0  0  0  0  0
  -16.7041    5.2773   10.8734 C   0  0  0  0  0  0  0  0  0  0  0  0
  -14.4551    4.5166   10.0831 C   0  0  0  0  0  0  0  0  0  0  0  0
  -17.4750    4.4506   10.1283 C   0  0  0  0  0  0  0  0  0  0  0  0
  -19.5168    3.1550    9.6693 C   0  0  0  0  0  0  0  0  0  0  0  0
  -20.4831    4.1751   12.0727 O   0  0  0  0  0  0  0  0  0  0  0  0
  -19.3606    4.5074   11.7034 C   0  0  0  0  0  0  0  0  0  0  0  0
  -18.7618    4.0605   10.5127 N   0  3  0  0  0  0  0  0  0  0  0  0
  -18.5214    5.4027   12.4624 C   0  0  0  0  0  0  0  0  0  0  0  0
  -18.8173    6.0113   13.6520 N   0  3  0  0  0  0  0  0  0  0  0  0
  -17.7481    6.7831   14.0403 C   0  0  0  0  0  0  0  0  0  0  0  0
  -16.7527    6.6571   13.0877 C   0  0  0  0  0  0  0  0  0  0  0  0
  -17.2506    5.7913   12.0936 C   0  0  0  0  0  0  0  0  0  0  0  0
  -15.3504    5.5690   10.3414 C   0  0  0  0  0  0  0  0  0  0  0  0
  -13.6691    7.1331    9.5760 C   0  0  0  0  0  0  0  0  0  0  0  0
  -12.9310    8.7396    8.0841 O   0  0  0  0  0  0  0  0  0  0  0  0
  -13.1254    9.4487   10.2726 N   0  0  0  0  0  0  0  0  0  0  0  0
  -13.3336    9.1996   11.6914 C   0  0  0  0  0  0  0  0  0  0  0  0
  -11.8074    6.2823    8.8904 H   0  0  0  0  0  0  0  0  0  0  0  0
  -12.5830   11.4220   10.7727 H   0  0  0  0  0  0  0  0  0  0  0  0
  -13.3360   11.2030    9.1681 H   0  0  0  0  0  0  0  0  0  0  0  0
  -11.6571   10.6785    9.4390 H   0  0  0  0  0  0  0  0  0  0  0  0
  -12.5086    3.9441    9.3529 H   0  0  0  0  0  0  0  0  0  0  0  0
  -15.6371    7.7130   10.2472 H   0  0  0  0  0  0  0  0  0  0  0  0
  -14.7451    3.4857   10.2792 H   0  0  0  0  0  0  0  0  0  0  0  0
  -17.1213    4.0429    9.1841 H   0  0  0  0  0  0  0  0  0  0  0  0
  -18.9543    2.8704    8.7744 H   0  0  0  0  0  0  0  0  0  0  0  0
  -20.4492    3.6432    9.3696 H   0  0  0  0  0  0  0  0  0  0  0  0
  -19.7589    2.2543   10.2429 H   0  0  0  0  0  0  0  0  0  0  0  0
  -19.6923    5.8974   14.1544 H   0  0  0  0  0  0  0  0  0  0  0  0
  -17.7869    7.3509   14.9605 H   0  0  0  0  0  0  0  0  0  0  0  0
  -15.7863    7.1395   13.1249 H   0  0  0  0  0  0  0  0  0  0  0  0
  -13.6289    8.1736   11.9065 H   0  0  0  0  0  0  0  0  0  0  0  0
  -14.1168    9.8764   12.0460 H   0  0  0  0  0  0  0  0  0  0  0  0
  -12.4022    9.4023   12.2270 H   0  0  0  0  0  0  0  0  0  0  0  0
  1  4  2  0  0  0  0
  1 19  1  0  0  0  0
  1 23  1  0  0  0  0
  2 19  1  0  0  0  0
  2 20  2  0  0  0  0
  2 21  1  0  0  0  0
  3 21  1  0  0  0  0
  3 24  1  0  0  0  0
  3 25  1  0  0  0  0
  3 26  1  0  0  0  0
  4  7  1  0  0  0  0
  4 27  1  0  0  0  0
  5 18  1  0  0  0  0
  5 19  2  0  0  0  0
  5 28  1  0  0  0  0
  6  8  1  0  0  0  0
  6 17  2  0  0  0  0
  6 18  1  0  0  0  0
  7 18  2  0  0  0  0
  7 29  1  0  0  0  0
  8 12  2  0  0  0  0
  8 30  1  0  0  0  0
  9 12  1  0  0  0  0
  9 31  1  0  0  0  0
  9 32  1  0  0  0  0
  9 33  1  0  0  0  0
 10 11  2  0  0  0  0
 11 12  1  0  0  0  0
 11 13  1  0  0  0  0
 13 14  2  0  0  0  0
 13 17  1  0  0  0  0
 14 15  1  0  0  0  0
 14 34  1  0  0  0  0
 15 16  2  0  0  0  0
 15 35  1  0  0  0  0
 16 17  1  0  0  0  0
 16 36  1  0  0  0  0
 21 22  1  0  0  0  0
 22 37  1  0  0  0  0
 22 38  1  0  0  0  0
 22 39  1  0  0  0  0
M  CHG  2  12   1  14   1
M  END
$$$$
