67D
 OpenBabel04161910353D

 60 65  0  0  1  0  0  0  0  0999 V2000
  -31.0347    3.8972  -23.7598 S   0  0  0  0  0  0  0  0  0  0  0  0
  -31.7558    5.1015  -23.0314 N   0  0  0  0  0  0  0  0  0  0  0  0
  -25.5928    4.3147  -34.8714 C   0  0  0  0  0  0  0  0  0  0  0  0
  -27.4996    4.4430  -33.7916 C   0  0  0  0  0  0  0  0  0  0  0  0
  -28.3430    4.6968  -32.5856 C   0  0  0  0  0  0  0  0  0  0  0  0
  -27.6386    5.0534  -31.4627 C   0  0  0  0  0  0  0  0  0  0  0  0
  -26.6719    4.0186  -35.6888 C   0  0  0  0  0  0  0  0  0  0  0  0
  -25.5734    4.9644  -32.4060 C   0  0  0  0  0  0  0  0  0  0  0  0
  -29.8387    4.9474  -31.1773 C   0  0  0  0  0  0  0  0  0  0  0  0
  -31.9542    6.1989  -23.7373 C   0  0  0  0  0  0  0  0  0  0  0  0
  -32.2713    8.6347  -23.7719 C   0  0  0  0  0  0  0  0  0  0  0  0
  -31.8266    7.4473  -22.9284 C   0  0  0  0  0  0  0  0  0  0  0  0
  -26.1482    4.5884  -33.6420 N   0  3  0  0  0  0  0  0  0  0  0  0
  -26.2819    5.2016  -31.3168 N   0  0  0  0  0  0  0  0  0  0  0  0
  -29.6641    4.6313  -32.4490 N   0  0  0  0  0  0  0  0  0  0  0  0
  -28.6438    5.2253  -30.5374 N   0  3  0  0  0  0  0  0  0  0  0  0
  -28.4698    5.5978  -29.1481 C   0  0  2  0  0  0  0  0  0  0  0  0
  -28.7665    4.4735  -28.3088 O   0  0  0  0  0  0  0  0  0  0  0  0
  -29.3521    6.7245  -28.6141 C   0  0  2  0  0  0  0  0  0  0  0  0
  -28.9219    8.0209  -29.0344 O   0  0  0  0  0  0  0  0  0  0  0  0
  -29.2610    6.4965  -27.0974 C   0  0  2  0  0  0  0  0  0  0  0  0
  -28.1669    7.2604  -26.5561 O   0  0  0  0  0  0  0  0  0  0  0  0
  -28.9307    4.9965  -26.9676 C   0  0  1  0  0  0  0  0  0  0  0  0
  -29.9750    4.1794  -26.2104 C   0  0  0  0  0  0  0  0  0  0  0  0
  -29.9886    4.5980  -24.8442 O   0  0  0  0  0  0  0  0  0  0  0  0
  -30.1406    3.2333  -22.8257 O   0  0  0  0  0  0  0  0  0  0  0  0
  -31.8647    3.0036  -24.5636 O   0  0  0  0  0  0  0  0  0  0  0  0
  -27.8494    4.1049  -35.0030 N   0  0  0  0  0  0  0  0  0  0  0  0
  -32.2098    6.2299  -24.9575 O   0  0  0  0  0  0  0  0  0  0  0  0
  -33.4488    9.4064  -23.2416 C   0  0  1  0  0  0  0  0  0  0  0  0
  -33.9416    9.5567  -21.9008 C   0  0  2  0  0  0  0  0  0  0  0  0
  -35.0678   10.3941  -21.9610 C   0  0  2  0  0  0  0  0  0  0  0  0
  -35.2570   10.7395  -23.2836 N   0  3  0  0  0  0  0  0  0  0  0  0
  -34.2867   10.1522  -24.0514 C   0  0  0  0  0  0  0  0  0  0  0  0
  -35.8000   10.7574  -20.8241 C   0  0  0  0  0  0  0  0  0  0  0  0
  -35.3717   10.2499  -19.5935 C   0  0  0  0  0  0  0  0  0  0  0  0
  -34.2600    9.4246  -19.4939 C   0  0  0  0  0  0  0  0  0  0  0  0
  -33.5407    9.0738  -20.6343 C   0  0  0  0  0  0  0  0  0  0  0  0
  -24.5408    4.3373  -35.1134 H   0  0  0  0  0  0  0  0  0  0  0  0
  -26.6418    3.7505  -36.7364 H   0  0  0  0  0  0  0  0  0  0  0  0
  -24.4790    5.0662  -32.3779 H   0  0  0  0  0  0  0  0  0  0  0  0
  -30.8174    4.9804  -30.7058 H   0  0  0  0  0  0  0  0  0  0  0  0
  -32.5353    8.2915  -24.7812 H   0  0  0  0  0  0  0  0  0  0  0  0
  -31.4211    9.3116  -23.9203 H   0  0  0  0  0  0  0  0  0  0  0  0
  -30.7866    7.5940  -22.5950 H   0  0  0  0  0  0  0  0  0  0  0  0
  -32.4521    7.3542  -22.0427 H   0  0  0  0  0  0  0  0  0  0  0  0
  -27.4146    5.8670  -29.0180 H   0  0  0  0  0  0  0  0  0  0  0  0
  -30.3902    6.5928  -28.9352 H   0  0  0  0  0  0  0  0  0  0  0  0
  -27.9973    8.1336  -28.7445 H   0  0  0  0  0  0  0  0  0  0  0  0
  -30.1878    6.7694  -26.5817 H   0  0  0  0  0  0  0  0  0  0  0  0
  -28.3774    8.2036  -26.6823 H   0  0  0  0  0  0  0  0  0  0  0  0
  -27.9723    4.8826  -26.4445 H   0  0  0  0  0  0  0  0  0  0  0  0
  -29.7096    3.1142  -26.2975 H   0  0  0  0  0  0  0  0  0  0  0  0
  -30.9581    4.3257  -26.6855 H   0  0  0  0  0  0  0  0  0  0  0  0
  -35.9943   11.3318  -23.6228 H   0  0  0  0  0  0  0  0  0  0  0  0
  -34.2466   10.2873  -25.1210 H   0  0  0  0  0  0  0  0  0  0  0  0
  -36.6694   11.4076  -20.8751 H   0  0  0  0  0  0  0  0  0  0  0  0
  -35.9206   10.5059  -18.6918 H   0  0  0  0  0  0  0  0  0  0  0  0
  -33.9432    9.0530  -18.5228 H   0  0  0  0  0  0  0  0  0  0  0  0
  -32.6774    8.4209  -20.5089 H   0  0  0  0  0  0  0  0  0  0  0  0
  1  2  1  0  0  0  0
  1 25  1  0  0  0  0
  1 26  2  0  0  0  0
  1 27  2  0  0  0  0
  2 10  1  0  0  0  0
  3  7  2  0  0  0  0
  3 13  1  0  0  0  0
  3 39  1  0  0  0  0
  4  5  2  0  0  0  0
  4 13  1  0  0  0  0
  4 28  1  0  0  0  0
  5  6  1  0  0  0  0
  5 15  1  0  0  0  0
  6 14  2  0  0  0  0
  6 16  1  0  0  0  0
  7 28  1  0  0  0  0
  7 40  1  0  0  0  0
  8 13  2  0  0  0  0
  8 14  1  0  0  0  0
  8 41  1  0  0  0  0
  9 15  1  0  0  0  0
  9 16  2  0  0  0  0
  9 42  1  0  0  0  0
 10 12  1  0  0  0  0
 10 29  2  0  0  0  0
 11 12  1  0  0  0  0
 11 43  1  0  0  0  0
 11 44  1  0  0  0  0
 12 45  1  0  0  0  0
 12 46  1  0  0  0  0
 16 17  1  0  0  0  0
 17 18  1  0  0  0  0
 17 19  1  0  0  0  0
 17 47  1  1  0  0  0
 18 23  1  0  0  0  0
 19 20  1  0  0  0  0
 19 21  1  0  0  0  0
 19 48  1  6  0  0  0
 20 49  1  0  0  0  0
 21 22  1  0  0  0  0
 21 23  1  0  0  0  0
 21 50  1  1  0  0  0
 22 51  1  0  0  0  0
 23 24  1  0  0  0  0
 23 52  1  1  0  0  0
 24 25  1  0  0  0  0
 24 53  1  0  0  0  0
 24 54  1  0  0  0  0
 30 11  1  1  0  0  0
 30 31  1  0  0  0  0
 30 34  1  0  0  0  0
 31 32  1  0  0  0  0
 31 38  1  1  0  0  0
 32 33  1  1  0  0  0
 32 35  1  0  0  0  0
 33 34  1  0  0  0  0
 33 55  1  0  0  0  0
 34 56  1  0  0  0  0
 35 36  1  0  0  0  0
 35 57  1  0  0  0  0
 36 37  1  0  0  0  0
 36 58  1  0  0  0  0
 37 38  1  0  0  0  0
 37 59  1  0  0  0  0
 38 60  1  0  0  0  0
M  CHG  3  13   1  16   1  33   1
M  END
$$$$
