68J
 OpenBabel04161910363D

 83 87  0  0  0  0  0  0  0  0999 V2000
   13.9846  -39.0726   13.7026 C   0  0  0  0  0  0  0  0  0  0  0  0
   12.5643  -39.2888   13.1548 C   0  0  0  0  0  0  0  0  0  0  0  0
   11.7984  -40.1572   14.1605 C   0  0  0  0  0  0  0  0  0  0  0  0
   11.8905  -37.9170   13.0228 C   0  0  0  0  0  0  0  0  0  0  0  0
   12.6644  -39.9647   11.7652 C   0  0  0  0  0  0  0  0  0  0  0  0
   11.3865  -40.6307   11.2471 C   0  0  0  0  0  0  0  0  0  0  0  0
   11.6224  -41.2952    9.9773 N   0  0  0  0  0  0  0  0  0  0  0  0
   12.0556  -42.6060    9.9194 C   0  0  0  0  0  0  0  0  0  0  0  0
   12.1651  -43.3324   10.9030 O   0  0  0  0  0  0  0  0  0  0  0  0
   12.4162  -43.0936    8.5273 C   0  0  0  0  0  0  0  0  0  0  0  0
   13.9262  -43.2523    8.3300 C   0  0  0  0  0  0  0  0  0  0  0  0
   14.6688  -41.9858    8.6678 C   0  0  0  0  0  0  0  0  0  0  0  0
   14.5643  -40.8290    7.8954 C   0  0  0  0  0  0  0  0  0  0  0  0
   15.1066  -39.6553    8.2727 N   0  0  0  0  0  0  0  0  0  0  0  0
   13.7748  -40.7980    6.7649 N   0  0  0  0  0  0  0  0  0  0  0  0
   15.4033  -41.9258    9.8522 C   0  0  0  0  0  0  0  0  0  0  0  0
   15.9612  -40.7178   10.2609 C   0  0  0  0  0  0  0  0  0  0  0  0
   16.6840  -40.6266   11.4573 C   0  0  0  0  0  0  0  0  0  0  0  0
   15.7783  -39.5903    9.4391 C   0  0  0  0  0  0  0  0  0  0  0  0
   16.3370  -38.3881    9.8654 C   0  0  0  0  0  0  0  0  0  0  0  0
   17.0783  -38.2917   11.0511 C   0  0  0  0  0  0  0  0  0  0  0  0
   17.2701  -39.4199   11.8528 C   0  0  0  0  0  0  0  0  0  0  0  0
   18.2070  -39.3987   12.9825 C   0  0  0  0  0  0  0  0  0  0  0  0
   17.8871  -38.7086   14.1627 C   0  0  0  0  0  0  0  0  0  0  0  0
   18.7817  -38.6894   15.2340 C   0  0  0  0  0  0  0  0  0  0  0  0
   19.9982  -39.3527   15.1277 C   0  0  0  0  0  0  0  0  0  0  0  0
   20.3389  -40.0439   13.9610 C   0  0  0  0  0  0  0  0  0  0  0  0
   19.4483  -40.0726   12.8899 C   0  0  0  0  0  0  0  0  0  0  0  0
   19.8192  -40.7526   11.6771 C   0  0  0  0  0  0  0  0  0  0  0  0
   20.0172  -41.2580   10.5931 C   0  0  0  0  0  0  0  0  0  0  0  0
   20.1813  -41.8345    9.2572 C   0  0  0  0  0  0  0  0  0  0  0  0
   20.0597  -40.7474    8.1692 C   0  0  0  0  0  0  0  0  0  0  0  0
   20.7617  -39.4117    8.3834 C   0  0  0  0  0  0  0  0  0  0  0  0
   19.2673  -39.4731    8.3977 C   0  0  0  0  0  0  0  0  0  0  0  0
   19.9936  -41.2637    6.8125 N   0  0  0  0  0  0  0  0  0  0  0  0
   21.1185  -41.4481    6.0352 C   0  0  0  0  0  0  0  0  0  0  0  0
   22.2681  -41.3059    6.4356 O   0  0  0  0  0  0  0  0  0  0  0  0
   20.8673  -41.8893    4.6384 C   0  0  0  0  0  0  0  0  0  0  0  0
   21.7163  -42.8597    4.0886 C   0  0  0  0  0  0  0  0  0  0  0  0
   21.5043  -43.3185    2.7875 C   0  0  0  0  0  0  0  0  0  0  0  0
   20.4584  -42.7930    2.0329 C   0  0  0  0  0  0  0  0  0  0  0  0
   20.2554  -43.2399    0.7871 F   0  0  0  0  0  0  0  0  0  0  0  0
   19.6233  -41.8130    2.5584 C   0  0  0  0  0  0  0  0  0  0  0  0
   19.8246  -41.3567    3.8657 C   0  0  0  0  0  0  0  0  0  0  0  0
   13.9592  -38.5946   14.6884 H   0  0  0  0  0  0  0  0  0  0  0  0
   14.5696  -38.4335   13.0343 H   0  0  0  0  0  0  0  0  0  0  0  0
   14.5112  -40.0273   13.8122 H   0  0  0  0  0  0  0  0  0  0  0  0
   10.7623  -40.3201   13.8487 H   0  0  0  0  0  0  0  0  0  0  0  0
   11.7635  -39.6839   15.1476 H   0  0  0  0  0  0  0  0  0  0  0  0
   12.2818  -41.1345   14.2723 H   0  0  0  0  0  0  0  0  0  0  0  0
   12.4426  -37.2797   12.3215 H   0  0  0  0  0  0  0  0  0  0  0  0
   11.8643  -37.3962   13.9866 H   0  0  0  0  0  0  0  0  0  0  0  0
   10.8635  -38.0094   12.6583 H   0  0  0  0  0  0  0  0  0  0  0  0
   13.4522  -40.7244   11.8015 H   0  0  0  0  0  0  0  0  0  0  0  0
   12.9940  -39.2194   11.0276 H   0  0  0  0  0  0  0  0  0  0  0  0
   10.5935  -39.8924   11.0944 H   0  0  0  0  0  0  0  0  0  0  0  0
   11.0260  -41.3830   11.9543 H   0  0  0  0  0  0  0  0  0  0  0  0
   11.6843  -40.7140    9.1492 H   0  0  0  0  0  0  0  0  0  0  0  0
   11.9976  -42.4086    7.7840 H   0  0  0  0  0  0  0  0  0  0  0  0
   11.9196  -44.0558    8.3657 H   0  0  0  0  0  0  0  0  0  0  0  0
   14.1453  -43.5274    7.2890 H   0  0  0  0  0  0  0  0  0  0  0  0
   14.3058  -44.0890    8.9309 H   0  0  0  0  0  0  0  0  0  0  0  0
   13.8053  -39.9452    6.2238 H   0  0  0  0  0  0  0  0  0  0  0  0
   13.4636  -41.6467    6.3208 H   0  0  0  0  0  0  0  0  0  0  0  0
   15.4925  -42.8109   10.4826 H   0  0  0  0  0  0  0  0  0  0  0  0
   16.8563  -41.5217   12.0566 H   0  0  0  0  0  0  0  0  0  0  0  0
   16.2454  -37.5126    9.2276 H   0  0  0  0  0  0  0  0  0  0  0  0
   17.5848  -37.3582   11.2924 H   0  0  0  0  0  0  0  0  0  0  0  0
   16.9359  -38.1860   14.2596 H   0  0  0  0  0  0  0  0  0  0  0  0
   18.5260  -38.1578   16.1474 H   0  0  0  0  0  0  0  0  0  0  0  0
   20.7024  -39.3356   15.9616 H   0  0  0  0  0  0  0  0  0  0  0  0
   21.2946  -40.5553   13.8891 H   0  0  0  0  0  0  0  0  0  0  0  0
   19.4295  -42.6153    9.0854 H   0  0  0  0  0  0  0  0  0  0  0  0
   21.1687  -42.3030    9.1991 H   0  0  0  0  0  0  0  0  0  0  0  0
   21.2530  -38.9452    7.5377 H   0  0  0  0  0  0  0  0  0  0  0  0
   21.2863  -39.2442    9.3169 H   0  0  0  0  0  0  0  0  0  0  0  0
   18.7742  -39.3367    9.3420 H   0  0  0  0  0  0  0  0  0  0  0  0
   18.7250  -39.0408    7.5643 H   0  0  0  0  0  0  0  0  0  0  0  0
   19.0750  -41.4376    6.4217 H   0  0  0  0  0  0  0  0  0  0  0  0
   22.5318  -43.2629    4.6801 H   0  0  0  0  0  0  0  0  0  0  0  0
   22.1452  -44.0845    2.3604 H   0  0  0  0  0  0  0  0  0  0  0  0
   18.8230  -41.4073    1.9454 H   0  0  0  0  0  0  0  0  0  0  0  0
   19.1845  -40.5711    4.2564 H   0  0  0  0  0  0  0  0  0  0  0  0
  1  2  1  0  0  0  0
  1 45  1  0  0  0  0
  1 46  1  0  0  0  0
  1 47  1  0  0  0  0
  2  3  1  0  0  0  0
  2  4  1  0  0  0  0
  2  5  1  0  0  0  0
  3 48  1  0  0  0  0
  3 49  1  0  0  0  0
  3 50  1  0  0  0  0
  4 51  1  0  0  0  0
  4 52  1  0  0  0  0
  4 53  1  0  0  0  0
  5  6  1  0  0  0  0
  5 54  1  0  0  0  0
  5 55  1  0  0  0  0
  6  7  1  0  0  0  0
  6 56  1  0  0  0  0
  6 57  1  0  0  0  0
  7  8  1  0  0  0  0
  7 58  1  0  0  0  0
  8  9  2  0  0  0  0
  8 10  1  0  0  0  0
 10 11  1  0  0  0  0
 10 59  1  0  0  0  0
 10 60  1  0  0  0  0
 11 12  1  0  0  0  0
 11 61  1  0  0  0  0
 11 62  1  0  0  0  0
 12 13  2  0  0  0  0
 12 16  1  0  0  0  0
 13 14  1  0  0  0  0
 13 15  1  0  0  0  0
 14 19  2  0  0  0  0
 15 63  1  0  0  0  0
 15 64  1  0  0  0  0
 16 17  2  0  0  0  0
 16 65  1  0  0  0  0
 17 18  1  0  0  0  0
 17 19  1  0  0  0  0
 18 22  2  0  0  0  0
 18 66  1  0  0  0  0
 19 20  1  0  0  0  0
 20 21  2  0  0  0  0
 20 67  1  0  0  0  0
 21 22  1  0  0  0  0
 21 68  1  0  0  0  0
 22 23  1  0  0  0  0
 23 24  2  0  0  0  0
 23 28  1  0  0  0  0
 24 25  1  0  0  0  0
 24 69  1  0  0  0  0
 25 26  2  0  0  0  0
 25 70  1  0  0  0  0
 26 27  1  0  0  0  0
 26 71  1  0  0  0  0
 27 28  2  0  0  0  0
 27 72  1  0  0  0  0
 28 29  1  0  0  0  0
 29 30  3  0  0  0  0
 30 31  1  0  0  0  0
 31 32  1  0  0  0  0
 31 73  1  0  0  0  0
 31 74  1  0  0  0  0
 32 33  1  0  0  0  0
 32 34  1  0  0  0  0
 32 35  1  0  0  0  0
 33 34  1  0  0  0  0
 33 75  1  0  0  0  0
 33 76  1  0  0  0  0
 34 77  1  0  0  0  0
 34 78  1  0  0  0  0
 35 36  1  0  0  0  0
 35 79  1  0  0  0  0
 36 37  2  0  0  0  0
 36 38  1  0  0  0  0
 38 39  2  0  0  0  0
 38 44  1  0  0  0  0
 39 40  1  0  0  0  0
 39 80  1  0  0  0  0
 40 41  2  0  0  0  0
 40 81  1  0  0  0  0
 41 42  1  0  0  0  0
 41 43  1  0  0  0  0
 43 44  2  0  0  0  0
 43 82  1  0  0  0  0
 44 83  1  0  0  0  0
M  END
$$$$
