69E
 OpenBabel04161910373D

 51 55  0  0  1  0  0  0  0  0999 V2000
   26.5700   12.3422   14.6528 C   0  0  0  0  0  0  0  0  0  0  0  0
   26.3443   12.4238   13.1652 C   0  0  0  0  0  0  0  0  0  0  0  0
   30.8680   14.7046   13.7390 C   0  0  0  0  0  0  0  0  0  0  0  0
   28.4544   13.6333   12.9543 C   0  0  0  0  0  0  0  0  0  0  0  0
   28.8365   14.8883   12.4909 C   0  0  0  0  0  0  0  0  0  0  0  0
   30.0396   15.4345   12.9035 C   0  0  0  0  0  0  0  0  0  0  0  0
   30.5063   13.4280   14.1978 C   0  0  0  0  0  0  0  0  0  0  0  0
   29.2723   12.8705   13.8160 C   0  0  0  0  0  0  0  0  0  0  0  0
   27.1680    9.9379   14.5968 C   0  0  0  0  0  0  0  0  0  0  0  0
   27.6673   11.3344   14.9525 C   0  0  1  0  0  0  0  0  0  0  0  0
   25.3734   11.9406   12.6076 O   0  0  0  0  0  0  0  0  0  0  0  0
   27.2665   13.1097   12.4492 N   0  0  0  0  0  0  0  0  0  0  0  0
   28.9191   11.5871   14.2391 N   0  0  0  0  0  0  0  0  0  0  0  0
   31.4573   12.7485   15.0736 C   0  0  0  0  0  0  0  0  0  0  0  0
   31.1971   12.5768   16.4351 C   0  0  0  0  0  0  0  0  0  0  0  0
   32.1360   11.9865   17.2696 C   0  0  0  0  0  0  0  0  0  0  0  0
   33.3468   11.5507   16.7103 C   0  0  0  0  0  0  0  0  0  0  0  0
   33.6501   11.7004   15.3531 C   0  0  0  0  0  0  0  0  0  0  0  0
   32.6864   12.3130   14.5423 C   0  0  0  0  0  0  0  0  0  0  0  0
   34.9603   11.1326   15.1990 C   0  0  0  0  0  0  0  0  0  0  0  0
   35.4165   10.6710   16.3553 N   0  0  0  0  0  0  0  0  0  0  0  0
   34.4365   10.9331   17.2706 N   0  3  0  0  0  0  0  0  0  0  0  0
   34.5722   10.5853   18.6816 C   0  0  0  0  0  0  0  0  0  0  0  0
   35.7309   11.0110   13.9455 C   0  0  0  0  0  0  0  0  0  0  0  0
   36.9302   10.2758   13.7756 C   0  0  0  0  0  0  0  0  0  0  0  0
   37.3479   10.3534   12.5035 N   0  0  0  0  0  0  0  0  0  0  0  0
   36.4029   11.1305   11.8672 N   0  3  0  0  0  0  0  0  0  0  0  0
   35.4284   11.5241   12.7241 C   0  0  0  0  0  0  0  0  0  0  0  0
   36.4509   11.4769   10.4544 C   0  0  0  0  0  0  0  0  0  0  0  0
   25.6299   12.0417   15.1273 H   0  0  0  0  0  0  0  0  0  0  0  0
   26.8541   13.3340   15.0260 H   0  0  0  0  0  0  0  0  0  0  0  0
   31.8185   15.1268   14.0509 H   0  0  0  0  0  0  0  0  0  0  0  0
   28.1947   15.4508   11.8210 H   0  0  0  0  0  0  0  0  0  0  0  0
   30.3409   16.4210   12.5742 H   0  0  0  0  0  0  0  0  0  0  0  0
   27.9410    9.1955   14.8187 H   0  0  0  0  0  0  0  0  0  0  0  0
   26.9277    9.8913   13.5255 H   0  0  0  0  0  0  0  0  0  0  0  0
   26.2632    9.6997   15.1730 H   0  0  0  0  0  0  0  0  0  0  0  0
   27.8634   11.3725   16.0367 H   0  0  0  0  0  0  0  0  0  0  0  0
   27.0549   13.2321   11.4719 H   0  0  0  0  0  0  0  0  0  0  0  0
   29.5729   10.8223   14.0651 H   0  0  0  0  0  0  0  0  0  0  0  0
   30.2496   12.9070   16.8590 H   0  0  0  0  0  0  0  0  0  0  0  0
   31.9260   11.8710   18.3232 H   0  0  0  0  0  0  0  0  0  0  0  0
   32.8821   12.4594   13.4849 H   0  0  0  0  0  0  0  0  0  0  0  0
   35.5373   10.1013   18.8578 H   0  0  0  0  0  0  0  0  0  0  0  0
   33.7609    9.9007   18.9729 H   0  0  0  0  0  0  0  0  0  0  0  0
   34.5036   11.4980   19.2933 H   0  0  0  0  0  0  0  0  0  0  0  0
   37.4592    9.7042   14.5602 H   0  0  0  0  0  0  0  0  0  0  0  0
   34.5715   12.1337   12.4508 H   0  0  0  0  0  0  0  0  0  0  0  0
   35.5765   12.1050   10.2023 H   0  0  0  0  0  0  0  0  0  0  0  0
   36.4193   10.5670    9.8482 H   0  0  0  0  0  0  0  0  0  0  0  0
   37.3640   12.0405   10.2421 H   0  0  0  0  0  0  0  0  0  0  0  0
  1  2  1  0  0  0  0
  1 10  1  0  0  0  0
  1 30  1  0  0  0  0
  1 31  1  0  0  0  0
  2 11  2  0  0  0  0
  2 12  1  0  0  0  0
  3  6  2  0  0  0  0
  3  7  1  0  0  0  0
  3 32  1  0  0  0  0
  4  5  2  0  0  0  0
  4  8  1  0  0  0  0
  4 12  1  0  0  0  0
  5  6  1  0  0  0  0
  5 33  1  0  0  0  0
  6 34  1  0  0  0  0
  7  8  2  0  0  0  0
  7 14  1  0  0  0  0
  8 13  1  0  0  0  0
  9 10  1  0  0  0  0
  9 35  1  0  0  0  0
  9 36  1  0  0  0  0
  9 37  1  0  0  0  0
 10 13  1  0  0  0  0
 10 38  1  1  0  0  0
 12 39  1  0  0  0  0
 13 40  1  0  0  0  0
 14 15  1  0  0  0  0
 14 19  2  0  0  0  0
 15 16  2  0  0  0  0
 15 41  1  0  0  0  0
 16 17  1  0  0  0  0
 16 42  1  0  0  0  0
 17 18  1  0  0  0  0
 17 22  2  0  0  0  0
 18 19  1  0  0  0  0
 18 20  2  0  0  0  0
 19 43  1  0  0  0  0
 20 21  1  0  0  0  0
 20 24  1  0  0  0  0
 21 22  1  0  0  0  0
 22 23  1  0  0  0  0
 23 44  1  0  0  0  0
 23 45  1  0  0  0  0
 23 46  1  0  0  0  0
 24 25  2  0  0  0  0
 24 28  1  0  0  0  0
 25 26  1  0  0  0  0
 25 47  1  0  0  0  0
 26 27  1  0  0  0  0
 27 28  2  0  0  0  0
 27 29  1  0  0  0  0
 28 48  1  0  0  0  0
 29 49  1  0  0  0  0
 29 50  1  0  0  0  0
 29 51  1  0  0  0  0
M  CHG  2  22   1  27   1
M  END
$$$$
