6BC
 OpenBabel04161911213D

 29 31  0  0  1  0  0  0  0  0999 V2000
    6.5486   23.6783  -17.3272 Cl  0  0  0  0  0  0  0  0  0  0  0  0
    5.5544   22.5369  -18.1285 C   0  0  0  0  0  0  0  0  0  0  0  0
    6.0430   21.3656  -18.3645 N   0  0  0  0  0  0  0  0  0  0  0  0
    5.2532   20.5101  -19.0722 C   0  0  0  0  0  0  0  0  0  0  0  0
    4.2705   22.9974  -18.7382 C   0  0  1  0  0  0  0  0  0  0  0  0
    3.3231   21.9603  -19.2237 C   0  0  0  0  0  0  0  0  0  0  0  0
    2.1723   22.1453  -19.6102 O   0  0  0  0  0  0  0  0  0  0  0  0
    3.9597   20.7602  -19.4580 N   0  3  0  0  0  0  0  0  0  0  0  0
    3.3759   19.7329  -20.1309 N   0  0  0  0  0  0  0  0  0  0  0  0
    4.3091   18.7931  -20.1415 C   0  0  0  0  0  0  0  0  0  0  0  0
    5.4671   19.2527  -19.5105 C   0  0  0  0  0  0  0  0  0  0  0  0
    6.6283   18.5086  -19.3368 C   0  0  0  0  0  0  0  0  0  0  0  0
    7.6192   17.9692  -19.1311 N   0  0  0  0  0  0  0  0  0  0  0  0
    3.5639   24.1978  -18.1671 C   0  0  0  0  0  0  0  0  0  0  0  0
    3.6793   25.3080  -19.1699 C   0  0  0  0  0  0  0  0  0  0  0  0
    3.2517   25.1529  -20.4932 C   0  0  0  0  0  0  0  0  0  0  0  0
    3.3768   26.2145  -21.3711 C   0  0  0  0  0  0  0  0  0  0  0  0
    3.9139   27.4193  -20.9354 C   0  0  0  0  0  0  0  0  0  0  0  0
    4.3465   27.5657  -19.6204 C   0  0  0  0  0  0  0  0  0  0  0  0
    4.2359   26.5049  -18.7440 C   0  0  0  0  0  0  0  0  0  0  0  0
    4.6856   23.3193  -19.6894 H   0  0  0  0  0  0  0  0  0  0  0  0
    4.1588   17.8191  -20.5817 H   0  0  0  0  0  0  0  0  0  0  0  0
    4.0257   24.5337  -17.2367 H   0  0  0  0  0  0  0  0  0  0  0  0
    2.4948   24.0401  -18.0071 H   0  0  0  0  0  0  0  0  0  0  0  0
    2.8241   24.2153  -20.8454 H   0  0  0  0  0  0  0  0  0  0  0  0
    3.0363   26.0977  -22.3933 H   0  0  0  0  0  0  0  0  0  0  0  0
    3.9792   28.2579  -21.6199 H   0  0  0  0  0  0  0  0  0  0  0  0
    4.7603   28.4990  -19.2628 H   0  0  0  0  0  0  0  0  0  0  0  0
    4.5644   26.6050  -17.7154 H   0  0  0  0  0  0  0  0  0  0  0  0
  1  2  1  0  0  0  0
  2  3  2  0  0  0  0
  2  5  1  0  0  0  0
  3  4  1  0  0  0  0
  4  8  1  0  0  0  0
  4 11  2  0  0  0  0
  5  6  1  0  0  0  0
  5 14  1  0  0  0  0
  5 21  1  6  0  0  0
  6  7  2  0  0  0  0
  6  8  1  0  0  0  0
  8  9  1  0  0  0  0
  9 10  2  0  0  0  0
 10 11  1  0  0  0  0
 10 22  1  0  0  0  0
 11 12  1  0  0  0  0
 12 13  3  0  0  0  0
 14 15  1  0  0  0  0
 14 23  1  0  0  0  0
 14 24  1  0  0  0  0
 15 16  2  0  0  0  0
 15 20  1  0  0  0  0
 16 17  1  0  0  0  0
 16 25  1  0  0  0  0
 17 18  2  0  0  0  0
 17 26  1  0  0  0  0
 18 19  1  0  0  0  0
 18 27  1  0  0  0  0
 19 20  2  0  0  0  0
 19 28  1  0  0  0  0
 20 29  1  0  0  0  0
M  CHG  1   8   1
M  END
$$$$
