6BZ
 OpenBabel04161910413D

 55 58  0  0  0  0  0  0  0  0999 V2000
   19.4864  -18.8085    9.0167 C   0  0  0  0  0  0  0  0  0  0  0  0
   22.9702  -18.6280    8.7226 C   0  0  0  0  0  0  0  0  0  0  0  0
   19.7285  -17.1163   11.2345 C   0  0  0  0  0  0  0  0  0  0  0  0
   23.9858  -18.7409    7.8599 C   0  0  0  0  0  0  0  0  0  0  0  0
   20.6531  -18.0608    9.2116 C   0  0  0  0  0  0  0  0  0  0  0  0
   20.7751  -17.2241   10.3236 C   0  0  0  0  0  0  0  0  0  0  0  0
   18.5629  -17.8754   11.0591 C   0  0  0  0  0  0  0  0  0  0  0  0
   18.4529  -18.7265    9.9447 C   0  0  0  0  0  0  0  0  0  0  0  0
   21.5336  -17.8244    6.9675 C   0  0  0  0  0  0  0  0  0  0  0  0
   22.6361  -17.5385    4.6620 C   0  0  0  0  0  0  0  0  0  0  0  0
   22.7792  -17.9643    6.0954 C   0  0  0  0  0  0  0  0  0  0  0  0
   20.5004  -17.3869    6.4794 O   0  0  0  0  0  0  0  0  0  0  0  0
   21.7322  -18.1770    8.3060 N   0  3  0  0  0  0  0  0  0  0  0  0
   23.9191  -18.3991    6.5364 N   0  0  0  0  0  0  0  0  0  0  0  0
   17.0554  -19.7177    9.7007 Cl  0  0  0  0  0  0  0  0  0  0  0  0
   17.4799  -17.7593   12.0435 C   0  0  0  0  0  0  0  0  0  0  0  0
   17.5533  -18.4479   13.1930 C   0  0  0  0  0  0  0  0  0  0  0  0
   16.4720  -18.3424   14.1573 C   0  0  0  0  0  0  0  0  0  0  0  0
   16.4707  -18.9789   15.3756 C   0  0  0  0  0  0  0  0  0  0  0  0
   15.4845  -18.8394   16.2816 N   0  0  0  0  0  0  0  0  0  0  0  0
   14.4628  -18.0402   15.9598 C   0  0  0  0  0  0  0  0  0  0  0  0
   14.3730  -17.3872   14.7964 N   0  0  0  0  0  0  0  0  0  0  0  0
   15.3614  -17.5611   13.9068 C   0  0  0  0  0  0  0  0  0  0  0  0
   15.2845  -16.8414   12.6871 N   0  3  0  0  0  0  0  0  0  0  0  0
   16.3149  -16.8642   11.7648 C   0  0  0  0  0  0  0  0  0  0  0  0
   16.3412  -16.0660   10.8224 O   0  0  0  0  0  0  0  0  0  0  0  0
   14.1294  -15.9702   12.4644 C   0  0  0  0  0  0  0  0  0  0  0  0
   14.1837  -14.6588   13.2604 C   0  0  0  0  0  0  0  0  0  0  0  0
   15.5391  -13.9656   13.2492 C   0  0  0  0  0  0  0  0  0  0  0  0
   15.9494  -13.6232   11.8737 N   0  3  0  0  0  0  0  0  0  0  0  0
   13.5006  -17.8556   16.9122 N   0  0  0  0  0  0  0  0  0  0  0  0
   12.3020  -17.1246   16.6131 C   0  0  0  0  0  0  0  0  0  0  0  0
   19.4037  -19.4814    8.1662 H   0  0  0  0  0  0  0  0  0  0  0  0
   23.0763  -18.9328    9.7593 H   0  0  0  0  0  0  0  0  0  0  0  0
   19.8285  -16.4305   12.0744 H   0  0  0  0  0  0  0  0  0  0  0  0
   24.9416  -19.1300    8.1971 H   0  0  0  0  0  0  0  0  0  0  0  0
   21.6715  -16.6165   10.4581 H   0  0  0  0  0  0  0  0  0  0  0  0
   23.5776  -17.6954    4.1279 H   0  0  0  0  0  0  0  0  0  0  0  0
   22.3777  -16.4767    4.6174 H   0  0  0  0  0  0  0  0  0  0  0  0
   21.8517  -18.1275    4.1807 H   0  0  0  0  0  0  0  0  0  0  0  0
   18.3976  -19.0910   13.4274 H   0  0  0  0  0  0  0  0  0  0  0  0
   17.2838  -19.6307   15.6843 H   0  0  0  0  0  0  0  0  0  0  0  0
   13.2064  -16.5215   12.6780 H   0  0  0  0  0  0  0  0  0  0  0  0
   14.0750  -15.7190   11.3975 H   0  0  0  0  0  0  0  0  0  0  0  0
   13.9098  -14.8537   14.3043 H   0  0  0  0  0  0  0  0  0  0  0  0
   13.4158  -13.9780   12.8723 H   0  0  0  0  0  0  0  0  0  0  0  0
   16.3294  -14.5904   13.6766 H   0  0  0  0  0  0  0  0  0  0  0  0
   15.5049  -13.0276   13.8114 H   0  0  0  0  0  0  0  0  0  0  0  0
   16.8737  -13.1778   11.8457 H   0  0  0  0  0  0  0  0  0  0  0  0
   16.0395  -14.4679   11.2615 H   0  0  0  0  0  0  0  0  0  0  0  0
   13.5480  -18.4905   17.6965 H   0  0  0  0  0  0  0  0  0  0  0  0
   11.6147  -17.1700   17.4645 H   0  0  0  0  0  0  0  0  0  0  0  0
   11.7802  -17.5190   15.7341 H   0  0  0  0  0  0  0  0  0  0  0  0
   12.5424  -16.0699   16.4363 H   0  0  0  0  0  0  0  0  0  0  0  0
   15.2864  -12.9934   11.4035 H   0  0  0  0  0  0  0  0  0  0  0  0
  1  5  2  0  0  0  0
  1  8  1  0  0  0  0
  1 33  1  0  0  0  0
  2  4  2  0  0  0  0
  2 13  1  0  0  0  0
  2 34  1  0  0  0  0
  3  6  2  0  0  0  0
  3  7  1  0  0  0  0
  3 35  1  0  0  0  0
  4 14  1  0  0  0  0
  4 36  1  0  0  0  0
  5  6  1  0  0  0  0
  5 13  1  0  0  0  0
  6 37  1  0  0  0  0
  7  8  2  0  0  0  0
  7 16  1  0  0  0  0
  8 15  1  0  0  0  0
  9 11  1  0  0  0  0
  9 12  2  0  0  0  0
  9 13  1  0  0  0  0
 10 11  1  0  0  0  0
 10 38  1  0  0  0  0
 10 39  1  0  0  0  0
 10 40  1  0  0  0  0
 11 14  2  0  0  0  0
 16 17  2  0  0  0  0
 16 25  1  0  0  0  0
 17 18  1  0  0  0  0
 17 41  1  0  0  0  0
 18 19  2  0  0  0  0
 18 23  1  0  0  0  0
 19 20  1  0  0  0  0
 19 42  1  0  0  0  0
 20 21  2  0  0  0  0
 21 22  1  0  0  0  0
 21 31  1  0  0  0  0
 22 23  2  0  0  0  0
 23 24  1  0  0  0  0
 24 25  1  0  0  0  0
 24 27  1  0  0  0  0
 25 26  2  0  0  0  0
 27 28  1  0  0  0  0
 27 43  1  0  0  0  0
 27 44  1  0  0  0  0
 28 29  1  0  0  0  0
 28 45  1  0  0  0  0
 28 46  1  0  0  0  0
 29 30  1  0  0  0  0
 29 47  1  0  0  0  0
 29 48  1  0  0  0  0
 30 49  1  0  0  0  0
 30 50  1  0  0  0  0
 30 55  1  0  0  0  0
 31 32  1  0  0  0  0
 31 51  1  0  0  0  0
 32 52  1  0  0  0  0
 32 53  1  0  0  0  0
 32 54  1  0  0  0  0
M  CHG  3  13   1  24   1  30   1
M  END
$$$$
