6DB
 OpenBabel04161911423D

 35 34  0  0  1  0  0  0  0  0999 V2000
  -14.3303  -27.7159   26.0863 O   0  0  0  0  0  0  0  0  0  0  0  0
  -15.3022  -26.9048   25.9051 C   0  0  0  0  0  0  0  0  0  0  0  0
  -15.9978  -27.1445   24.5448 C   0  0  1  0  0  0  0  0  0  0  0  0
  -16.7964  -28.4324   24.6325 C   0  0  0  0  0  0  0  0  0  0  0  0
  -16.8964  -26.0738   24.0797 N   0  3  0  0  0  0  0  0  0  0  0  0
  -16.2634  -24.7759   23.6382 C   0  0  2  0  0  0  0  0  0  0  0  0
  -17.3624  -23.7015   23.3777 C   0  0  0  0  0  0  0  0  0  0  0  0
  -16.9294  -22.5157   23.2181 O   0  0  0  0  0  0  0  0  0  0  0  0
  -18.5307  -24.1862   23.2608 O   0  0  0  0  0  0  0  0  0  0  0  0
  -15.4075  -24.9435   22.3601 C   0  0  0  0  0  0  0  0  0  0  0  0
  -16.1579  -25.5897   21.2087 C   0  0  0  0  0  0  0  0  0  0  0  0
  -15.6498  -25.2719   19.8157 C   0  0  0  0  0  0  0  0  0  0  0  0
  -16.3240  -26.2410   18.9326 N   0  0  0  0  0  0  0  0  0  0  0  0
  -15.9586  -26.5288   17.6902 C   0  0  0  0  0  0  0  0  0  0  0  0
  -16.6649  -27.4143   16.9935 N   0  0  0  0  0  0  0  0  0  0  0  0
  -14.8984  -25.9469   17.1456 N   0  0  0  0  0  0  0  0  0  0  0  0
  -15.7215  -25.9111   26.5574 O   0  0  0  0  0  0  0  0  0  0  0  0
  -15.2471  -27.2556   23.7536 H   0  0  0  0  0  0  0  0  0  0  0  0
  -17.3259  -28.6423   23.6937 H   0  0  0  0  0  0  0  0  0  0  0  0
  -17.5337  -28.3904   25.4419 H   0  0  0  0  0  0  0  0  0  0  0  0
  -16.1233  -29.2730   24.8294 H   0  0  0  0  0  0  0  0  0  0  0  0
  -17.5522  -26.3701   23.3576 H   0  0  0  0  0  0  0  0  0  0  0  0
  -15.6042  -24.4370   24.4433 H   0  0  0  0  0  0  0  0  0  0  0  0
  -14.5170  -25.5483   22.5859 H   0  0  0  0  0  0  0  0  0  0  0  0
  -15.0449  -23.9572   22.0490 H   0  0  0  0  0  0  0  0  0  0  0  0
  -17.2106  -25.2978   21.2287 H   0  0  0  0  0  0  0  0  0  0  0  0
  -16.1221  -26.6815   21.3245 H   0  0  0  0  0  0  0  0  0  0  0  0
  -14.5648  -25.3943   19.7366 H   0  0  0  0  0  0  0  0  0  0  0  0
  -15.9338  -24.2626   19.4919 H   0  0  0  0  0  0  0  0  0  0  0  0
  -17.1031  -26.7484   19.3337 H   0  0  0  0  0  0  0  0  0  0  0  0
  -16.4252  -27.6536   16.0399 H   0  0  0  0  0  0  0  0  0  0  0  0
  -14.3706  -25.2793   17.6892 H   0  0  0  0  0  0  0  0  0  0  0  0
  -14.6018  -26.1463   16.2038 H   0  0  0  0  0  0  0  0  0  0  0  0
  -17.4769  -25.7858   24.8932 H   0  0  0  0  0  0  0  0  0  0  0  0
  -17.4768  -27.8525   17.4043 H   0  0  0  0  0  0  0  0  0  0  0  0
  1  2  2  0  0  0  0
  2  3  1  0  0  0  0
  2 17  1  0  0  0  0
  3  4  1  0  0  0  0
  3  5  1  0  0  0  0
  3 18  1  6  0  0  0
  4 19  1  0  0  0  0
  4 20  1  0  0  0  0
  4 21  1  0  0  0  0
  5  6  1  0  0  0  0
  5 22  1  0  0  0  0
  5 34  1  0  0  0  0
  6  7  1  0  0  0  0
  6 10  1  0  0  0  0
  6 23  1  1  0  0  0
  7  8  2  0  0  0  0
  7  9  1  0  0  0  0
 10 11  1  0  0  0  0
 10 24  1  0  0  0  0
 10 25  1  0  0  0  0
 11 12  1  0  0  0  0
 11 26  1  0  0  0  0
 11 27  1  0  0  0  0
 12 13  1  0  0  0  0
 12 28  1  0  0  0  0
 12 29  1  0  0  0  0
 13 14  1  0  0  0  0
 13 30  1  0  0  0  0
 14 15  2  0  0  0  0
 14 16  1  0  0  0  0
 15 31  1  0  0  0  0
 15 35  1  0  0  0  0
 16 32  1  0  0  0  0
 16 33  1  0  0  0  0
M  CHG  1   5   1
M  END
$$$$
