6DP
 OpenBabel04161910583D

 23 24  0  0  0  0  0  0  0  0999 V2000
   12.8792  -18.8632  -20.1059 C   0  0  0  0  0  0  0  0  0  0  0  0
   13.6342  -19.9623  -19.7197 C   0  0  0  0  0  0  0  0  0  0  0  0
   11.5402  -19.2873  -19.9950 C   0  0  0  0  0  0  0  0  0  0  0  0
   15.0276  -19.9349  -19.6883 C   0  0  0  0  0  0  0  0  0  0  0  0
   15.6382  -18.7277  -20.0674 C   0  0  0  0  0  0  0  0  0  0  0  0
   14.8889  -17.6045  -20.4604 C   0  0  0  0  0  0  0  0  0  0  0  0
   13.6966  -14.5636  -21.8125 O   0  0  0  0  0  0  0  0  0  0  0  0
   12.7933  -15.0021  -20.7722 S   0  0  0  0  0  0  0  0  0  0  0  0
   11.4507  -14.4828  -20.6966 O   0  0  0  0  0  0  0  0  0  0  0  0
   13.5875  -14.7129  -19.2097 C   0  0  0  0  0  0  0  0  0  0  0  0
   12.6213  -16.6307  -20.9143 N   0  0  0  0  0  0  0  0  0  0  0  0
   13.4952  -17.6597  -20.4840 C   0  0  0  0  0  0  0  0  0  0  0  0
   12.7135  -20.9370  -19.4327 N   0  3  0  0  0  0  0  0  0  0  0  0
   11.4312  -20.5539  -19.5954 N   0  0  0  0  0  0  0  0  0  0  0  0
   10.6582  -18.6918  -20.1939 H   0  0  0  0  0  0  0  0  0  0  0  0
   15.6170  -20.8015  -19.3980 H   0  0  0  0  0  0  0  0  0  0  0  0
   16.7258  -18.6717  -20.0718 H   0  0  0  0  0  0  0  0  0  0  0  0
   15.4129  -16.7035  -20.7702 H   0  0  0  0  0  0  0  0  0  0  0  0
   14.6083  -15.0894  -19.2621 H   0  0  0  0  0  0  0  0  0  0  0  0
   13.0188  -15.1820  -18.4073 H   0  0  0  0  0  0  0  0  0  0  0  0
   13.6208  -13.6289  -19.0677 H   0  0  0  0  0  0  0  0  0  0  0  0
   11.7822  -16.9072  -21.4250 H   0  0  0  0  0  0  0  0  0  0  0  0
   12.8871  -21.8894  -19.1210 H   0  0  0  0  0  0  0  0  0  0  0  0
  1  2  1  0  0  0  0
  1  3  2  0  0  0  0
  1 12  1  0  0  0  0
  2  4  1  0  0  0  0
  2 13  2  0  0  0  0
  3 14  1  0  0  0  0
  3 15  1  0  0  0  0
  4  5  2  0  0  0  0
  4 16  1  0  0  0  0
  5  6  1  0  0  0  0
  5 17  1  0  0  0  0
  6 12  2  0  0  0  0
  6 18  1  0  0  0  0
  7  8  2  0  0  0  0
  8  9  2  0  0  0  0
  8 10  1  0  0  0  0
  8 11  1  0  0  0  0
 10 19  1  0  0  0  0
 10 20  1  0  0  0  0
 10 21  1  0  0  0  0
 11 12  1  0  0  0  0
 11 22  1  0  0  0  0
 13 14  1  0  0  0  0
 13 23  1  0  0  0  0
M  CHG  1  13   1
M  END
$$$$
