6EN
 OpenBabel04161910433D

 31 33  0  0  0  0  0  0  0  0999 V2000
  -25.9607   23.9341    4.3231 C   0  0  0  0  0  0  0  0  0  0  0  0
  -27.4436   25.1718    5.4840 C   0  0  0  0  0  0  0  0  0  0  0  0
  -25.8060   23.0065    5.3534 C   0  0  0  0  0  0  0  0  0  0  0  0
  -22.7103   18.3978    8.4087 O   0  0  0  0  0  0  0  0  0  0  0  0
  -23.4305   19.1349    7.6664 C   0  0  0  0  0  0  0  0  0  0  0  0
  -24.1139   20.1417    8.0512 O   0  0  0  0  0  0  0  0  0  0  0  0
  -23.5065   18.7795    6.1985 C   0  0  0  0  0  0  0  0  0  0  0  0
  -23.0474   17.5195    5.7763 C   0  0  0  0  0  0  0  0  0  0  0  0
  -23.1443   17.1696    4.4413 C   0  0  0  0  0  0  0  0  0  0  0  0
  -23.6644   17.9695    3.4912 N   0  0  0  0  0  0  0  0  0  0  0  0
  -24.0992   19.1839    3.9211 C   0  0  0  0  0  0  0  0  0  0  0  0
  -24.0491   19.6566    5.2365 C   0  0  0  0  0  0  0  0  0  0  0  0
  -24.4854   20.9505    5.6104 N   0  0  0  0  0  0  0  0  0  0  0  0
  -24.8934   22.0182    4.8902 C   0  0  0  0  0  0  0  0  0  0  0  0
  -24.4848   22.3864    3.6288 C   0  0  0  0  0  0  0  0  0  0  0  0
  -25.1512   23.5375    3.2898 N   0  3  0  0  0  0  0  0  0  0  0  0
  -24.9982   24.2167    2.0276 C   0  0  0  0  0  0  0  0  0  0  0  0
  -26.7557   25.0273    4.3273 N   0  0  0  0  0  0  0  0  0  0  0  0
  -27.3837   24.3251    6.5830 C   0  0  0  0  0  0  0  0  0  0  0  0
  -26.5474   23.2124    6.5295 C   0  0  0  0  0  0  0  0  0  0  0  0
  -28.0911   26.0447    5.5113 H   0  0  0  0  0  0  0  0  0  0  0  0
  -22.6273   16.8247    6.4980 H   0  0  0  0  0  0  0  0  0  0  0  0
  -22.8012   16.2000    4.0957 H   0  0  0  0  0  0  0  0  0  0  0  0
  -24.5426   19.7825    3.1347 H   0  0  0  0  0  0  0  0  0  0  0  0
  -24.5832   20.9684    6.6462 H   0  0  0  0  0  0  0  0  0  0  0  0
  -23.7629   21.9454    2.9553 H   0  0  0  0  0  0  0  0  0  0  0  0
  -25.6236   25.1112    1.9958 H   0  0  0  0  0  0  0  0  0  0  0  0
  -25.2969   23.5296    1.2310 H   0  0  0  0  0  0  0  0  0  0  0  0
  -23.9476   24.4959    1.9122 H   0  0  0  0  0  0  0  0  0  0  0  0
  -27.9771   24.5222    7.4681 H   0  0  0  0  0  0  0  0  0  0  0  0
  -26.4682   22.5175    7.3611 H   0  0  0  0  0  0  0  0  0  0  0  0
  1  3  1  0  0  0  0
  1 16  2  0  0  0  0
  1 18  1  0  0  0  0
  2 18  1  0  0  0  0
  2 19  2  0  0  0  0
  2 21  1  0  0  0  0
  3 14  1  0  0  0  0
  3 20  2  0  0  0  0
  4  5  2  0  0  0  0
  5  6  1  0  0  0  0
  5  7  1  0  0  0  0
  7  8  2  0  0  0  0
  7 12  1  0  0  0  0
  8  9  1  0  0  0  0
  8 22  1  0  0  0  0
  9 10  2  0  0  0  0
  9 23  1  0  0  0  0
 10 11  1  0  0  0  0
 11 12  2  0  0  0  0
 11 24  1  0  0  0  0
 12 13  1  0  0  0  0
 13 14  1  0  0  0  0
 13 25  1  0  0  0  0
 14 15  2  0  0  0  0
 15 16  1  0  0  0  0
 15 26  1  0  0  0  0
 16 17  1  0  0  0  0
 17 27  1  0  0  0  0
 17 28  1  0  0  0  0
 17 29  1  0  0  0  0
 19 20  1  0  0  0  0
 19 30  1  0  0  0  0
 20 31  1  0  0  0  0
M  CHG  1  16   1
M  END
$$$$
