6EO
 OpenBabel04161910433D

 30 31  0  0  0  0  0  0  0  0999 V2000
  -27.9027   23.4616    6.2028 C   0  0  0  0  0  0  0  0  0  0  0  0
  -27.0056   24.5556    4.2348 C   0  0  0  0  0  0  0  0  0  0  0  0
  -24.2184   19.1743    3.8895 C   0  0  0  0  0  0  0  0  0  0  0  0
  -23.2314   17.4670    5.7568 C   0  0  0  0  0  0  0  0  0  0  0  0
  -24.0676   20.2037    8.0010 O   0  0  0  0  0  0  0  0  0  0  0  0
  -23.4849   19.1296    7.6296 C   0  0  0  0  0  0  0  0  0  0  0  0
  -22.7854   18.3702    8.3678 O   0  0  0  0  0  0  0  0  0  0  0  0
  -23.6285   18.7470    6.1740 C   0  0  0  0  0  0  0  0  0  0  0  0
  -24.1449   19.6289    5.2054 C   0  0  0  0  0  0  0  0  0  0  0  0
  -24.5480   20.9208    5.6071 N   0  0  0  0  0  0  0  0  0  0  0  0
  -25.1599   21.8955    4.8535 C   0  0  0  0  0  0  0  0  0  0  0  0
  -25.4416   23.1680    5.6417 C   0  0  0  0  0  0  0  0  0  0  0  0
  -26.8080   23.7446    5.3660 C   0  0  0  0  0  0  0  0  0  0  0  0
  -29.1624   23.9908    5.9135 C   0  0  0  0  0  0  0  0  0  0  0  0
  -29.3391   24.7982    4.7903 C   0  0  0  0  0  0  0  0  0  0  0  0
  -30.8907   25.4494    4.4293 Cl  0  0  0  0  0  0  0  0  0  0  0  0
  -28.2638   25.0761    3.9472 C   0  0  0  0  0  0  0  0  0  0  0  0
  -25.4306   21.8114    3.6572 O   0  0  0  0  0  0  0  0  0  0  0  0
  -23.8378   17.9395    3.4713 N   0  0  0  0  0  0  0  0  0  0  0  0
  -23.3533   17.1168    4.4231 C   0  0  0  0  0  0  0  0  0  0  0  0
  -27.7741   22.8226    7.0716 H   0  0  0  0  0  0  0  0  0  0  0  0
  -26.1748   24.7532    3.5620 H   0  0  0  0  0  0  0  0  0  0  0  0
  -24.5890   19.8007    3.0861 H   0  0  0  0  0  0  0  0  0  0  0  0
  -22.8297   16.7583    6.4771 H   0  0  0  0  0  0  0  0  0  0  0  0
  -24.4314   21.0717    6.6261 H   0  0  0  0  0  0  0  0  0  0  0  0
  -24.6742   23.8978    5.3501 H   0  0  0  0  0  0  0  0  0  0  0  0
  -25.3168   23.0066    6.7180 H   0  0  0  0  0  0  0  0  0  0  0  0
  -30.0022   23.7663    6.5660 H   0  0  0  0  0  0  0  0  0  0  0  0
  -28.3981   25.6926    3.0631 H   0  0  0  0  0  0  0  0  0  0  0  0
  -23.0511   16.1348    4.0772 H   0  0  0  0  0  0  0  0  0  0  0  0
  1 13  2  0  0  0  0
  1 14  1  0  0  0  0
  1 21  1  0  0  0  0
  2 13  1  0  0  0  0
  2 17  2  0  0  0  0
  2 22  1  0  0  0  0
  3  9  2  0  0  0  0
  3 19  1  0  0  0  0
  3 23  1  0  0  0  0
  4  8  2  0  0  0  0
  4 20  1  0  0  0  0
  4 24  1  0  0  0  0
  5  6  2  0  0  0  0
  6  7  1  0  0  0  0
  6  8  1  0  0  0  0
  8  9  1  0  0  0  0
  9 10  1  0  0  0  0
 10 11  1  0  0  0  0
 10 25  1  0  0  0  0
 11 12  1  0  0  0  0
 11 18  2  0  0  0  0
 12 13  1  0  0  0  0
 12 26  1  0  0  0  0
 12 27  1  0  0  0  0
 14 15  2  0  0  0  0
 14 28  1  0  0  0  0
 15 16  1  0  0  0  0
 15 17  1  0  0  0  0
 17 29  1  0  0  0  0
 19 20  2  0  0  0  0
 20 30  1  0  0  0  0
M  END
$$$$
