6EZ
 OpenBabel04161910443D

 46 49  0  0  1  0  0  0  0  0999 V2000
   63.4819   28.1293    6.5015 C   0  0  0  0  0  0  0  0  0  0  0  0
   64.8284   27.9704    6.2060 C   0  0  0  0  0  0  0  0  0  0  0  0
   65.2650   28.0891    4.8822 C   0  0  0  0  0  0  0  0  0  0  0  0
   64.3640   28.3764    3.8386 C   0  0  0  0  0  0  0  0  0  0  0  0
   63.0050   28.5360    4.1799 C   0  0  0  0  0  0  0  0  0  0  0  0
   62.5644   28.4091    5.5005 C   0  0  0  0  0  0  0  0  0  0  0  0
   66.0412   29.1172    2.1018 C   0  0  0  0  0  0  0  0  0  0  0  0
   66.4559   29.2755    0.7656 C   0  0  0  0  0  0  0  0  0  0  0  0
   67.9553   30.9284   -0.3200 C   0  0  0  0  0  0  0  0  0  0  0  0
   67.1179   31.4241   -1.0556 O   0  0  0  0  0  0  0  0  0  0  0  0
   70.3899   30.4048   -0.7263 C   0  0  0  0  0  0  0  0  0  0  0  0
   71.7929   30.9931   -0.8956 C   0  0  2  0  0  0  0  0  0  0  0  0
   72.2888   31.7522    0.3361 C   0  0  0  0  0  0  0  0  0  0  0  0
   71.8912   33.1979    0.0682 C   0  0  0  0  0  0  0  0  0  0  0  0
   71.0847   33.1209   -1.2190 C   0  0  2  0  0  0  0  0  0  0  0  0
   69.5999   32.8053   -0.9615 C   0  0  0  0  0  0  0  0  0  0  0  0
   65.6440   28.8018   -0.2822 C   0  0  0  0  0  0  0  0  0  0  0  0
   64.4541   28.1442    0.0484 C   0  0  0  0  0  0  0  0  0  0  0  0
   63.0641   28.0137    7.7687 F   0  0  0  0  0  0  0  0  0  0  0  0
   64.8183   28.5048    2.4352 C   0  0  0  0  0  0  0  0  0  0  0  0
   67.7309   29.8658    0.5513 N   0  0  0  0  0  0  0  0  0  0  0  0
   69.3937   31.4640   -0.2192 C   0  0  1  0  0  0  0  0  0  0  0  0
   71.6762   32.0075   -1.9053 O   0  0  0  0  0  0  0  0  0  0  0  0
   66.1311   28.6750   -1.6011 N   0  0  0  0  0  0  0  0  0  0  0  0
   64.0405   28.0110    1.3782 C   0  0  0  0  0  0  0  0  0  0  0  0
   65.5312   27.7527    7.0037 H   0  0  0  0  0  0  0  0  0  0  0  0
   66.3220   27.9408    4.6732 H   0  0  0  0  0  0  0  0  0  0  0  0
   62.2694   28.7754    3.4141 H   0  0  0  0  0  0  0  0  0  0  0  0
   61.5149   28.5325    5.7482 H   0  0  0  0  0  0  0  0  0  0  0  0
   66.6631   29.5253    2.8955 H   0  0  0  0  0  0  0  0  0  0  0  0
   70.4169   29.5430   -0.0510 H   0  0  0  0  0  0  0  0  0  0  0  0
   70.0391   30.0409   -1.7024 H   0  0  0  0  0  0  0  0  0  0  0  0
   72.4979   30.2219   -1.2205 H   0  0  0  0  0  0  0  0  0  0  0  0
   73.3790   31.6818    0.4195 H   0  0  0  0  0  0  0  0  0  0  0  0
   71.8707   31.3648    1.2703 H   0  0  0  0  0  0  0  0  0  0  0  0
   72.7962   33.7979   -0.0908 H   0  0  0  0  0  0  0  0  0  0  0  0
   71.3347   33.6542    0.8924 H   0  0  0  0  0  0  0  0  0  0  0  0
   71.1908   34.0226   -1.8298 H   0  0  0  0  0  0  0  0  0  0  0  0
   69.0820   32.7765   -1.9262 H   0  0  0  0  0  0  0  0  0  0  0  0
   69.1501   33.6195   -0.3796 H   0  0  0  0  0  0  0  0  0  0  0  0
   63.8398   27.7017   -0.7320 H   0  0  0  0  0  0  0  0  0  0  0  0
   68.4023   29.7270    1.2942 H   0  0  0  0  0  0  0  0  0  0  0  0
   69.5901   31.6497    0.8482 H   0  0  0  0  0  0  0  0  0  0  0  0
   66.7608   29.4436   -1.8276 H   0  0  0  0  0  0  0  0  0  0  0  0
   65.3917   28.6027   -2.2920 H   0  0  0  0  0  0  0  0  0  0  0  0
   63.1116   27.4800    1.5754 H   0  0  0  0  0  0  0  0  0  0  0  0
  1  2  2  0  0  0  0
  1  6  1  0  0  0  0
  1 19  1  0  0  0  0
  2  3  1  0  0  0  0
  2 26  1  0  0  0  0
  3  4  2  0  0  0  0
  3 27  1  0  0  0  0
  4  5  1  0  0  0  0
  4 20  1  0  0  0  0
  5  6  2  0  0  0  0
  5 28  1  0  0  0  0
  6 29  1  0  0  0  0
  7  8  2  0  0  0  0
  7 20  1  0  0  0  0
  7 30  1  0  0  0  0
  8 17  1  0  0  0  0
  8 21  1  0  0  0  0
  9 10  2  0  0  0  0
  9 21  1  0  0  0  0
  9 22  1  0  0  0  0
 11 12  1  0  0  0  0
 11 22  1  0  0  0  0
 11 31  1  0  0  0  0
 11 32  1  0  0  0  0
 12 13  1  0  0  0  0
 12 23  1  0  0  0  0
 12 33  1  6  0  0  0
 13 14  1  0  0  0  0
 13 34  1  0  0  0  0
 13 35  1  0  0  0  0
 14 15  1  0  0  0  0
 14 36  1  0  0  0  0
 14 37  1  0  0  0  0
 15 16  1  0  0  0  0
 15 23  1  0  0  0  0
 15 38  1  6  0  0  0
 16 22  1  0  0  0  0
 16 39  1  0  0  0  0
 16 40  1  0  0  0  0
 17 18  2  0  0  0  0
 17 24  1  0  0  0  0
 18 25  1  0  0  0  0
 18 41  1  0  0  0  0
 20 25  2  0  0  0  0
 21 42  1  0  0  0  0
 22 43  1  1  0  0  0
 24 44  1  0  0  0  0
 24 45  1  0  0  0  0
 25 46  1  0  0  0  0
M  END
$$$$
