6F9
 OpenBabel04161910443D

 71 74  0  0  1  0  0  0  0  0999 V2000
   12.3200   12.1054   18.6061 O   0  0  0  0  0  0  0  0  0  0  0  0
   10.9496   18.0018   26.0557 C   0  0  0  0  0  0  0  0  0  0  0  0
   11.2519   15.9374   24.9951 C   0  0  0  0  0  0  0  0  0  0  0  0
   11.3165   20.6134   23.4236 O   0  0  0  0  0  0  0  0  0  0  0  0
   10.9533   16.1989   23.6497 C   0  0  0  0  0  0  0  0  0  0  0  0
   12.0908   13.3766   27.2140 N   0  0  0  0  0  0  0  0  0  0  0  0
    9.9534   17.2550   23.2735 C   0  0  0  0  0  0  0  0  0  0  0  0
   11.6008   15.4549   22.6559 C   0  0  0  0  0  0  0  0  0  0  0  0
   11.6993   11.2179   30.2427 N   0  3  2  0  0  0  0  0  0  0  0  0
   12.5229   14.4457   22.9721 C   0  0  0  0  0  0  0  0  0  0  0  0
   12.7962   14.1960   24.3278 C   0  0  0  0  0  0  0  0  0  0  0  0
   12.1538   14.9188   25.3341 C   0  0  0  0  0  0  0  0  0  0  0  0
   12.4264   14.6342   26.7766 C   0  0  0  0  0  0  0  0  0  0  0  0
   12.0353   13.0641   28.6392 C   0  0  1  0  0  0  0  0  0  0  0  0
   10.9411   13.8703   29.3537 C   0  0  0  0  0  0  0  0  0  0  0  0
   10.8157   13.4578   30.8155 C   0  0  0  0  0  0  0  0  0  0  0  0
   10.9941   19.5264   22.9789 C   0  0  0  0  0  0  0  0  0  0  0  0
   11.3135   19.1316   21.5400 C   0  0  0  0  0  0  0  0  0  0  0  0
   11.7544   20.2975   20.6904 C   0  0  0  0  0  0  0  0  0  0  0  0
   10.3364   18.5755   23.7403 N   0  0  0  0  0  0  0  0  0  0  0  0
   13.1401   13.6571   21.8952 C   0  0  0  0  0  0  0  0  0  0  0  0
   14.4902   13.2801   21.9322 C   0  0  0  0  0  0  0  0  0  0  0  0
   15.0711   12.5524   20.8870 C   0  0  0  0  0  0  0  0  0  0  0  0
   16.3969   12.2484   21.0508 O   0  0  0  0  0  0  0  0  0  0  0  0
   16.9873   11.3704   20.0942 C   0  0  0  0  0  0  0  0  0  0  0  0
   14.2987   12.1944   19.7915 C   0  0  0  0  0  0  0  0  0  0  0  0
   12.9516   12.5354   19.7331 C   0  0  0  0  0  0  0  0  0  0  0  0
   10.9196   12.3057   18.5090 C   0  0  0  0  0  0  0  0  0  0  0  0
   12.3787   13.2611   20.7810 C   0  0  0  0  0  0  0  0  0  0  0  0
   10.5754   16.6091   25.9860 O   0  0  0  0  0  0  0  0  0  0  0  0
   10.0697   18.8576   25.1518 C   0  0  0  0  0  0  0  0  0  0  0  0
   12.8812   15.4786   27.5146 O   0  0  0  0  0  0  0  0  0  0  0  0
   11.7155   11.5945   28.8004 C   0  0  0  0  0  0  0  0  0  0  0  0
   11.5351    9.7402   30.4012 C   0  0  0  0  0  0  0  0  0  0  0  0
   10.6252   11.9645   30.9715 C   0  0  0  0  0  0  0  0  0  0  0  0
   12.0036   18.1460   25.7924 H   0  0  0  0  0  0  0  0  0  0  0  0
   10.7984   18.3309   27.0928 H   0  0  0  0  0  0  0  0  0  0  0  0
   11.8408   12.6800   26.5316 H   0  0  0  0  0  0  0  0  0  0  0  0
    8.9826   17.0081   23.7130 H   0  0  0  0  0  0  0  0  0  0  0  0
    9.8253   17.2670   22.1932 H   0  0  0  0  0  0  0  0  0  0  0  0
   11.3831   15.6720   21.6061 H   0  0  0  0  0  0  0  0  0  0  0  0
   13.5170   13.4251   24.5934 H   0  0  0  0  0  0  0  0  0  0  0  0
   13.0046   13.3001   29.0943 H   0  0  0  0  0  0  0  0  0  0  0  0
    9.9801   13.6984   28.8497 H   0  0  0  0  0  0  0  0  0  0  0  0
   11.1673   14.9387   29.3022 H   0  0  0  0  0  0  0  0  0  0  0  0
    9.9495   13.9541   31.2620 H   0  0  0  0  0  0  0  0  0  0  0  0
   11.7137   13.7701   31.3608 H   0  0  0  0  0  0  0  0  0  0  0  0
   10.4234   18.7097   21.0714 H   0  0  0  0  0  0  0  0  0  0  0  0
   12.1190   18.3931   21.5594 H   0  0  0  0  0  0  0  0  0  0  0  0
   11.9712   19.9458   19.6765 H   0  0  0  0  0  0  0  0  0  0  0  0
   12.6561   20.7531   21.1093 H   0  0  0  0  0  0  0  0  0  0  0  0
   10.9617   21.0514   20.6430 H   0  0  0  0  0  0  0  0  0  0  0  0
   15.1108   13.5576   22.7807 H   0  0  0  0  0  0  0  0  0  0  0  0
   18.0397   11.2279   20.3692 H   0  0  0  0  0  0  0  0  0  0  0  0
   16.9516   11.8009   19.0879 H   0  0  0  0  0  0  0  0  0  0  0  0
   16.4923   10.3928   20.1078 H   0  0  0  0  0  0  0  0  0  0  0  0
   14.7200   11.6331   18.9658 H   0  0  0  0  0  0  0  0  0  0  0  0
   10.5850   11.8952   17.5483 H   0  0  0  0  0  0  0  0  0  0  0  0
   10.6793   13.3714   18.5324 H   0  0  0  0  0  0  0  0  0  0  0  0
   10.3999   11.7762   19.3121 H   0  0  0  0  0  0  0  0  0  0  0  0
   11.3268   13.5273   20.7433 H   0  0  0  0  0  0  0  0  0  0  0  0
   10.2476   19.9165   25.3691 H   0  0  0  0  0  0  0  0  0  0  0  0
    9.0138   18.6333   25.3427 H   0  0  0  0  0  0  0  0  0  0  0  0
   10.7209   11.3724   28.3942 H   0  0  0  0  0  0  0  0  0  0  0  0
   12.4678   10.9845   28.2977 H   0  0  0  0  0  0  0  0  0  0  0  0
   11.5444    9.5120   31.4666 H   0  0  0  0  0  0  0  0  0  0  0  0
   12.3672    9.2508   29.8936 H   0  0  0  0  0  0  0  0  0  0  0  0
   10.5832    9.4585   29.9485 H   0  0  0  0  0  0  0  0  0  0  0  0
   10.6847   11.6736   32.0210 H   0  0  0  0  0  0  0  0  0  0  0  0
    9.6716   11.6519   30.5375 H   0  0  0  0  0  0  0  0  0  0  0  0
   12.6069   11.4794   30.6511 H   0  0  0  0  0  0  0  0  0  0  0  0
  1 27  1  0  0  0  0
  1 28  1  0  0  0  0
  2 30  1  0  0  0  0
  2 31  1  0  0  0  0
  2 36  1  0  0  0  0
  2 37  1  0  0  0  0
  3  5  2  0  0  0  0
  3 12  1  0  0  0  0
  3 30  1  0  0  0  0
  4 17  2  0  0  0  0
  5  7  1  0  0  0  0
  5  8  1  0  0  0  0
  6 13  1  0  0  0  0
  6 14  1  0  0  0  0
  6 38  1  0  0  0  0
  7 20  1  0  0  0  0
  7 39  1  0  0  0  0
  7 40  1  0  0  0  0
  8 10  2  0  0  0  0
  8 41  1  0  0  0  0
  9 33  1  0  0  0  0
  9 34  1  0  0  0  0
  9 35  1  0  0  0  0
  9 71  1  1  0  0  0
 10 11  1  0  0  0  0
 10 21  1  0  0  0  0
 11 12  2  0  0  0  0
 11 42  1  0  0  0  0
 12 13  1  0  0  0  0
 13 32  2  0  0  0  0
 14 15  1  0  0  0  0
 14 33  1  0  0  0  0
 14 43  1  1  0  0  0
 15 16  1  0  0  0  0
 15 44  1  0  0  0  0
 15 45  1  0  0  0  0
 16 35  1  0  0  0  0
 16 46  1  0  0  0  0
 16 47  1  0  0  0  0
 17 18  1  0  0  0  0
 17 20  1  0  0  0  0
 18 19  1  0  0  0  0
 18 48  1  0  0  0  0
 18 49  1  0  0  0  0
 19 50  1  0  0  0  0
 19 51  1  0  0  0  0
 19 52  1  0  0  0  0
 20 31  1  0  0  0  0
 21 22  2  0  0  0  0
 21 29  1  0  0  0  0
 22 23  1  0  0  0  0
 22 53  1  0  0  0  0
 23 24  1  0  0  0  0
 23 26  2  0  0  0  0
 24 25  1  0  0  0  0
 25 54  1  0  0  0  0
 25 55  1  0  0  0  0
 25 56  1  0  0  0  0
 26 27  1  0  0  0  0
 26 57  1  0  0  0  0
 27 29  2  0  0  0  0
 28 58  1  0  0  0  0
 28 59  1  0  0  0  0
 28 60  1  0  0  0  0
 29 61  1  0  0  0  0
 31 62  1  0  0  0  0
 31 63  1  0  0  0  0
 33 64  1  0  0  0  0
 33 65  1  0  0  0  0
 34 66  1  0  0  0  0
 34 67  1  0  0  0  0
 34 68  1  0  0  0  0
 35 69  1  0  0  0  0
 35 70  1  0  0  0  0
M  CHG  1   9   1
M  END
$$$$
