6FX
 OpenBabel04161909393D

 30 32  0  0  0  0  0  0  0  0999 V2000
   13.7917  -28.7166    6.6362 C   0  0  0  0  0  0  0  0  0  0  0  0
   14.0529  -26.2318    6.9816 C   0  0  0  0  0  0  0  0  0  0  0  0
   18.6932  -27.6945   -1.5724 O   0  0  0  0  0  0  0  0  0  0  0  0
   18.2011  -27.2727   -0.5353 C   0  0  0  0  0  0  0  0  0  0  0  0
   18.0849  -25.9613   -0.2007 O   0  0  0  0  0  0  0  0  0  0  0  0
   18.8005  -25.0480   -1.0745 C   0  0  0  0  0  0  0  0  0  0  0  0
   17.7036  -28.2641    0.4463 C   0  0  0  0  0  0  0  0  0  0  0  0
   17.9124  -29.6335    0.1766 C   0  0  0  0  0  0  0  0  0  0  0  0
   17.0073  -27.9183    1.5786 C   0  0  0  0  0  0  0  0  0  0  0  0
   16.5545  -28.9541    2.4168 C   0  0  0  0  0  0  0  0  0  0  0  0
   16.8015  -30.3235    2.0738 C   0  0  0  0  0  0  0  0  0  0  0  0
   17.4814  -30.6862    0.9544 N   0  0  0  0  0  0  0  0  0  0  0  0
   15.8330  -28.5689    3.6142 C   0  0  0  0  0  0  0  0  0  0  0  0
   15.8162  -27.2357    3.9790 O   0  0  0  0  0  0  0  0  0  0  0  0
   15.0654  -27.1489    5.1243 C   0  0  0  0  0  0  0  0  0  0  0  0
   14.7830  -25.9687    5.8835 C   0  0  0  0  0  0  0  0  0  0  0  0
   13.5834  -27.4875    7.3138 N   0  3  0  0  0  0  0  0  0  0  0  0
   13.3706  -29.8153    6.9652 O   0  0  0  0  0  0  0  0  0  0  0  0
   14.6342  -28.4225    5.4527 C   0  0  0  0  0  0  0  0  0  0  0  0
   15.1235  -29.3202    4.5178 C   0  0  0  0  0  0  0  0  0  0  0  0
   13.7864  -25.4563    7.6788 H   0  0  0  0  0  0  0  0  0  0  0  0
   18.6202  -24.0091   -0.7537 H   0  0  0  0  0  0  0  0  0  0  0  0
   18.4723  -25.1476   -2.1171 H   0  0  0  0  0  0  0  0  0  0  0  0
   19.8793  -25.2401   -1.0044 H   0  0  0  0  0  0  0  0  0  0  0  0
   18.4611  -29.8776   -0.7423 H   0  0  0  0  0  0  0  0  0  0  0  0
   16.8193  -26.8653    1.7941 H   0  0  0  0  0  0  0  0  0  0  0  0
   16.4535  -31.1627    2.7161 H   0  0  0  0  0  0  0  0  0  0  0  0
   15.1447  -24.9655    5.5774 H   0  0  0  0  0  0  0  0  0  0  0  0
   13.0015  -27.6196    8.1526 H   0  0  0  0  0  0  0  0  0  0  0  0
   14.9895  -30.3837    4.4823 H   0  0  0  0  0  0  0  0  0  0  0  0
  1 17  1  0  0  0  0
  1 18  2  0  0  0  0
  1 19  1  0  0  0  0
  2 16  2  0  0  0  0
  2 17  1  0  0  0  0
  2 21  1  0  0  0  0
  3  4  2  0  0  0  0
  4  5  1  0  0  0  0
  4  7  1  0  0  0  0
  5  6  1  0  0  0  0
  6 22  1  0  0  0  0
  6 23  1  0  0  0  0
  6 24  1  0  0  0  0
  7  8  2  0  0  0  0
  7  9  1  0  0  0  0
  8 12  1  0  0  0  0
  8 25  1  0  0  0  0
  9 10  2  0  0  0  0
  9 26  1  0  0  0  0
 10 11  1  0  0  0  0
 10 13  1  0  0  0  0
 11 12  2  0  0  0  0
 11 27  1  0  0  0  0
 13 14  1  0  0  0  0
 13 20  2  0  0  0  0
 14 15  1  0  0  0  0
 15 16  1  0  0  0  0
 15 19  2  0  0  0  0
 16 28  1  0  0  0  0
 17 29  1  0  0  0  0
 19 20  1  0  0  0  0
 20 30  1  0  0  0  0
M  CHG  1  17   1
M  END
$$$$
