6H2
 OpenBabel04161910453D

 28 30  0  0  1  0  0  0  0  0999 V2000
  -18.6195   -0.9392  -26.0895 C   0  0  0  0  0  0  0  0  0  0  0  0
  -18.3250    0.1262  -26.9439 C   0  0  0  0  0  0  0  0  0  0  0  0
  -17.9885   -0.1494  -28.2517 C   0  0  0  0  0  0  0  0  0  0  0  0
  -17.9104   -1.4644  -28.6976 C   0  0  0  0  0  0  0  0  0  0  0  0
  -18.1842   -2.5258  -27.8368 C   0  0  0  0  0  0  0  0  0  0  0  0
  -18.5566   -2.2643  -26.5191 C   0  0  0  0  0  0  0  0  0  0  0  0
  -17.5554   -1.7282  -29.9871 O   0  0  0  0  0  0  0  0  0  0  0  0
  -17.7183    0.8665  -29.1230 O   0  0  0  0  0  0  0  0  0  0  0  0
  -18.9014   -0.6445  -24.6755 C   0  0  1  0  0  0  0  0  0  0  0  0
  -19.6937   -1.3509  -23.7876 N   0  3  0  0  0  0  0  0  0  0  0  0
  -19.6082   -0.7809  -22.5814 C   0  0  1  0  0  0  0  0  0  0  0  0
  -18.7827    0.2779  -22.6589 N   0  3  2  0  0  0  0  0  0  0  0  0
  -18.3459    0.3900  -23.9576 C   0  0  0  0  0  0  0  0  0  0  0  0
  -20.2537   -1.1443  -21.3007 C   0  0  0  0  0  0  0  0  0  0  0  0
  -19.9366   -0.3679  -20.2431 C   0  0  0  0  0  0  0  0  0  0  0  0
  -19.0049    0.7474  -20.3936 C   0  0  0  0  0  0  0  0  0  0  0  0
  -18.4447    1.0631  -21.5750 C   0  0  0  0  0  0  0  0  0  0  0  0
  -18.3687    1.1539  -26.5991 H   0  0  0  0  0  0  0  0  0  0  0  0
  -18.0950   -3.5512  -28.1861 H   0  0  0  0  0  0  0  0  0  0  0  0
  -18.7124   -3.0901  -25.8291 H   0  0  0  0  0  0  0  0  0  0  0  0
  -17.4123   -0.8571  -30.4115 H   0  0  0  0  0  0  0  0  0  0  0  0
  -17.8438    1.7144  -28.6599 H   0  0  0  0  0  0  0  0  0  0  0  0
  -17.6300    1.1494  -24.2278 H   0  0  0  0  0  0  0  0  0  0  0  0
  -20.9357   -1.9793  -21.2543 H   0  0  0  0  0  0  0  0  0  0  0  0
  -20.3567   -0.5607  -19.2616 H   0  0  0  0  0  0  0  0  0  0  0  0
  -18.7675    1.3388  -19.5088 H   0  0  0  0  0  0  0  0  0  0  0  0
  -17.7574    1.8915  -21.6997 H   0  0  0  0  0  0  0  0  0  0  0  0
  -20.2697   -2.1422  -24.0245 H   0  0  0  0  0  0  0  0  0  0  0  0
  1  2  2  0  0  0  0
  1  6  1  0  0  0  0
  2  3  1  0  0  0  0
  2 18  1  0  0  0  0
  3  4  2  0  0  0  0
  3  8  1  0  0  0  0
  4  5  1  0  0  0  0
  4  7  1  0  0  0  0
  5  6  2  0  0  0  0
  5 19  1  0  0  0  0
  6 20  1  0  0  0  0
  7 21  1  0  0  0  0
  8 22  1  0  0  0  0
  9  1  1  1  0  0  0
  9 10  1  0  0  0  0
  9 13  1  0  0  0  0
 10 28  1  0  0  0  0
 11 10  1  6  0  0  0
 11 12  1  0  0  0  0
 11 14  1  0  0  0  0
 12 13  1  1  0  0  0
 12 17  1  0  0  0  0
 13 23  1  0  0  0  0
 14 15  1  0  0  0  0
 14 24  1  0  0  0  0
 15 16  1  0  0  0  0
 15 25  1  0  0  0  0
 16 17  1  0  0  0  0
 16 26  1  0  0  0  0
 17 27  1  0  0  0  0
M  CHG  2  10   1  12   1
M  END
$$$$
