6J3
 OpenBabel04161910593D

 28 29  0  0  0  0  0  0  0  0999 V2000
    0.0887    0.0242    2.1060 O   0  0  0  0  0  0  0  0  0  0  0  0
    0.0418   -0.0117    3.3764 C   0  0  0  0  0  0  0  0  0  0  0  0
    0.8020    0.6493    4.1604 O   0  0  0  0  0  0  0  0  0  0  0  0
   -1.0072   -0.8929    4.0073 C   0  0  0  0  0  0  0  0  0  0  0  0
   -1.9349   -1.5645    3.1903 C   0  0  0  0  0  0  0  0  0  0  0  0
   -2.9268   -2.3548    3.7499 C   0  0  0  0  0  0  0  0  0  0  0  0
   -2.9682   -2.4527    5.1215 C   0  0  0  0  0  0  0  0  0  0  0  0
   -2.0978   -1.8355    5.9442 N   0  0  0  0  0  0  0  0  0  0  0  0
   -1.1174   -1.0624    5.3959 C   0  0  0  0  0  0  0  0  0  0  0  0
   -0.2112   -0.4219    6.2621 N   0  0  0  0  0  0  0  0  0  0  0  0
   -0.1079   -0.4523    7.6595 C   0  0  0  0  0  0  0  0  0  0  0  0
    0.0926    0.7301    8.4059 C   0  0  0  0  0  0  0  0  0  0  0  0
    0.2079    2.0761    7.7364 C   0  0  0  0  0  0  0  0  0  0  0  0
    0.1554    0.6410    9.8122 C   0  0  0  0  0  0  0  0  0  0  0  0
    0.4060    2.0412   10.8031 Cl  0  0  0  0  0  0  0  0  0  0  0  0
    0.0129   -0.5837   10.4704 C   0  0  0  0  0  0  0  0  0  0  0  0
   -0.2097   -1.7410    9.7375 C   0  0  0  0  0  0  0  0  0  0  0  0
   -0.2830   -1.6669    8.3483 C   0  0  0  0  0  0  0  0  0  0  0  0
   -1.8708   -1.4501    2.1091 H   0  0  0  0  0  0  0  0  0  0  0  0
   -3.6460   -2.8723    3.1282 H   0  0  0  0  0  0  0  0  0  0  0  0
   -3.7233   -3.0474    5.6235 H   0  0  0  0  0  0  0  0  0  0  0  0
    0.3800    0.2457    5.7433 H   0  0  0  0  0  0  0  0  0  0  0  0
    0.1058    2.0385    6.6502 H   0  0  0  0  0  0  0  0  0  0  0  0
    1.1856    2.5175    7.9534 H   0  0  0  0  0  0  0  0  0  0  0  0
   -0.5833    2.7433    8.0959 H   0  0  0  0  0  0  0  0  0  0  0  0
    0.0686   -0.6368   11.5532 H   0  0  0  0  0  0  0  0  0  0  0  0
   -0.3261   -2.6988   10.2341 H   0  0  0  0  0  0  0  0  0  0  0  0
   -0.4562   -2.5783    7.7795 H   0  0  0  0  0  0  0  0  0  0  0  0
  1  2  2  0  0  0  0
  2  3  1  0  0  0  0
  2  4  1  0  0  0  0
  4  5  2  0  0  0  0
  4  9  1  0  0  0  0
  5  6  1  0  0  0  0
  5 19  1  0  0  0  0
  6  7  2  0  0  0  0
  6 20  1  0  0  0  0
  7  8  1  0  0  0  0
  7 21  1  0  0  0  0
  8  9  2  0  0  0  0
  9 10  1  0  0  0  0
 10 11  1  0  0  0  0
 10 22  1  0  0  0  0
 11 12  2  0  0  0  0
 11 18  1  0  0  0  0
 12 13  1  0  0  0  0
 12 14  1  0  0  0  0
 13 23  1  0  0  0  0
 13 24  1  0  0  0  0
 13 25  1  0  0  0  0
 14 15  1  0  0  0  0
 14 16  2  0  0  0  0
 16 17  1  0  0  0  0
 16 26  1  0  0  0  0
 17 18  2  0  0  0  0
 17 27  1  0  0  0  0
 18 28  1  0  0  0  0
M  END
$$$$
