6K5
 OpenBabel04161910473D

 52 55  0  0  0  0  0  0  0  0999 V2000
   24.8153   -5.0684   16.9292 F   0  0  0  0  0  0  0  0  0  0  0  0
   24.2692   -4.6923   18.1267 C   0  0  0  0  0  0  0  0  0  0  0  0
   22.9609   -5.0626   18.0473 F   0  0  0  0  0  0  0  0  0  0  0  0
   24.2919   -3.3332   18.1052 F   0  0  0  0  0  0  0  0  0  0  0  0
   24.9748   -5.2810   19.3339 C   0  0  0  0  0  0  0  0  0  0  0  0
   26.3122   -5.8003   19.1318 C   0  0  0  0  0  0  0  0  0  0  0  0
   27.0231   -6.3700   20.1792 C   0  0  0  0  0  0  0  0  0  0  0  0
   28.3180   -6.8555   20.0149 N   0  0  0  0  0  0  0  0  0  0  0  0
   26.4318   -6.4480   21.3843 N   0  0  0  0  0  0  0  0  0  0  0  0
   25.1303   -5.9604   21.5389 C   0  0  0  0  0  0  0  0  0  0  0  0
   24.3035   -5.3537   20.5818 C   0  0  0  0  0  0  0  0  0  0  0  0
   22.8062   -4.8425   20.9299 C   0  0  0  0  0  0  0  0  0  0  0  0
   22.0823   -5.6197   21.7825 N   0  0  0  0  0  0  0  0  0  0  0  0
   22.3441   -3.6824   20.3727 N   0  0  0  0  0  0  0  0  0  0  0  0
   21.0606   -3.2789   20.7143 C   0  0  0  0  0  0  0  0  0  0  0  0
   20.4764   -2.0082   20.1884 N   0  0  0  0  0  0  0  0  0  0  0  0
   19.8065   -0.8891   20.8427 C   0  0  0  0  0  0  0  0  0  0  0  0
   19.9605   -1.6437   18.8826 C   0  0  0  0  0  0  0  0  0  0  0  0
   19.2771   -0.3508   19.4712 C   0  0  0  0  0  0  0  0  0  0  0  0
   17.7454   -0.2863   19.2141 C   0  0  0  0  0  0  0  0  0  0  0  0
   16.6859   -0.6957   20.6083 Cl  0  0  0  0  0  0  0  0  0  0  0  0
   19.9198    0.9646   18.9292 C   0  0  0  0  0  0  0  0  0  0  0  0
   19.6262    2.0471   19.8164 O   0  0  0  0  0  0  0  0  0  0  0  0
   20.3237   -4.0377   21.5677 N   0  0  0  0  0  0  0  0  0  0  0  0
   20.8024   -5.2087   22.0761 C   0  0  0  0  0  0  0  0  0  0  0  0
   19.9343   -5.9267   22.9694 N   0  0  0  0  0  0  0  0  0  0  0  0
   20.2114   -7.3319   23.3781 C   0  0  0  0  0  0  0  0  0  0  0  0
   19.2945   -7.8004   24.5604 C   0  0  0  0  0  0  0  0  0  0  0  0
   17.8937   -7.6117   24.3098 O   0  0  0  0  0  0  0  0  0  0  0  0
   17.6319   -6.2363   23.9977 C   0  0  0  0  0  0  0  0  0  0  0  0
   18.4584   -5.7490   22.7725 C   0  0  0  0  0  0  0  0  0  0  0  0
   26.7563   -5.7187   18.1329 H   0  0  0  0  0  0  0  0  0  0  0  0
   28.7875   -7.2560   20.8063 H   0  0  0  0  0  0  0  0  0  0  0  0
   28.7655   -6.8098   19.1505 H   0  0  0  0  0  0  0  0  0  0  0  0
   24.7393   -6.0692   22.5548 H   0  0  0  0  0  0  0  0  0  0  0  0
   20.4966   -0.1888   21.3311 H   0  0  0  0  0  0  0  0  0  0  0  0
   19.0166   -1.1410   21.5505 H   0  0  0  0  0  0  0  0  0  0  0  0
   19.2410   -2.3425   18.4385 H   0  0  0  0  0  0  0  0  0  0  0  0
   20.7411   -1.4249   18.1449 H   0  0  0  0  0  0  0  0  0  0  0  0
   17.4876   -0.9745   18.3983 H   0  0  0  0  0  0  0  0  0  0  0  0
   17.4483    0.7244   18.8845 H   0  0  0  0  0  0  0  0  0  0  0  0
   19.5257    1.2336   17.9362 H   0  0  0  0  0  0  0  0  0  0  0  0
   21.0069    0.8688   18.8499 H   0  0  0  0  0  0  0  0  0  0  0  0
   20.0480    2.8600   19.4745 H   0  0  0  0  0  0  0  0  0  0  0  0
   21.2439   -7.4447   23.7113 H   0  0  0  0  0  0  0  0  0  0  0  0
   20.0159   -8.0018   22.5330 H   0  0  0  0  0  0  0  0  0  0  0  0
   19.5539   -7.2657   25.4830 H   0  0  0  0  0  0  0  0  0  0  0  0
   19.4243   -8.8775   24.7417 H   0  0  0  0  0  0  0  0  0  0  0  0
   17.8503   -5.6241   24.8821 H   0  0  0  0  0  0  0  0  0  0  0  0
   16.5523   -6.1670   23.7925 H   0  0  0  0  0  0  0  0  0  0  0  0
   18.1380   -6.3459   21.9070 H   0  0  0  0  0  0  0  0  0  0  0  0
   18.2012   -4.7033   22.6110 H   0  0  0  0  0  0  0  0  0  0  0  0
  1  2  1  0  0  0  0
  2  3  1  0  0  0  0
  2  4  1  0  0  0  0
  2  5  1  0  0  0  0
  5  6  2  0  0  0  0
  5 11  1  0  0  0  0
  6  7  1  0  0  0  0
  6 32  1  0  0  0  0
  7  8  1  0  0  0  0
  7  9  2  0  0  0  0
  8 33  1  0  0  0  0
  8 34  1  0  0  0  0
  9 10  1  0  0  0  0
 10 11  2  0  0  0  0
 10 35  1  0  0  0  0
 11 12  1  0  0  0  0
 12 13  2  0  0  0  0
 12 14  1  0  0  0  0
 13 25  1  0  0  0  0
 14 15  2  0  0  0  0
 15 16  1  0  0  0  0
 15 24  1  0  0  0  0
 16 17  1  0  0  0  0
 16 18  1  0  0  0  0
 17 19  1  0  0  0  0
 17 36  1  0  0  0  0
 17 37  1  0  0  0  0
 18 19  1  0  0  0  0
 18 38  1  0  0  0  0
 18 39  1  0  0  0  0
 19 20  1  0  0  0  0
 19 22  1  0  0  0  0
 20 21  1  0  0  0  0
 20 40  1  0  0  0  0
 20 41  1  0  0  0  0
 22 23  1  0  0  0  0
 22 42  1  0  0  0  0
 22 43  1  0  0  0  0
 23 44  1  0  0  0  0
 24 25  2  0  0  0  0
 25 26  1  0  0  0  0
 26 27  1  0  0  0  0
 26 31  1  0  0  0  0
 27 28  1  0  0  0  0
 27 45  1  0  0  0  0
 27 46  1  0  0  0  0
 28 29  1  0  0  0  0
 28 47  1  0  0  0  0
 28 48  1  0  0  0  0
 29 30  1  0  0  0  0
 30 31  1  0  0  0  0
 30 49  1  0  0  0  0
 30 50  1  0  0  0  0
 31 51  1  0  0  0  0
 31 52  1  0  0  0  0
M  END
$$$$
