6QC
 OpenBabel04161910503D

 62 62  0  0  1  0  0  0  0  0999 V2000
   16.1695   41.3684  -10.6431 C   0  0  0  0  0  0  0  0  0  0  0  0
   17.4273   40.9899  -11.1147 C   0  0  0  0  0  0  0  0  0  0  0  0
   17.5523   40.4340  -12.3830 C   0  0  0  0  0  0  0  0  0  0  0  0
   13.6761   41.5869  -10.8653 C   0  0  0  0  0  0  0  0  0  0  0  0
   12.6473   40.9071   -8.8621 C   0  0  0  0  0  0  0  0  0  0  0  0
   11.9722   40.1068   -6.6860 C   0  0  0  0  0  0  0  0  0  0  0  0
    9.3341   37.9670   -1.2057 C   0  0  0  0  0  0  0  0  0  0  0  0
    9.1851   36.4552   -1.3335 C   0  0  0  0  0  0  0  0  0  0  0  0
    9.6144   38.3806    0.2390 C   0  0  0  0  0  0  0  0  0  0  0  0
    8.8776   39.2613   -3.9578 C   0  0  0  0  0  0  0  0  0  0  0  0
    8.4415   42.6113   -1.9891 C   0  0  0  0  0  0  0  0  0  0  0  0
   10.1234   38.1172   -6.5301 O   0  0  0  0  0  0  0  0  0  0  0  0
   11.4905   38.4829   -6.0052 P   0  0  2  0  0  0  0  0  0  0  0  0
   15.0206   41.2240  -11.4372 C   0  0  0  0  0  0  0  0  0  0  0  0
   16.4152   40.2861  -13.1821 C   0  0  0  0  0  0  0  0  0  0  0  0
   15.1541   40.6680  -12.7121 C   0  0  0  0  0  0  0  0  0  0  0  0
   11.3179   38.8853   -4.3434 N   0  0  0  0  0  0  0  0  0  0  0  0
   10.1122   38.4233   -3.6335 C   0  0  1  0  0  0  0  0  0  0  0  0
   10.4364   38.4963   -2.1241 C   0  0  0  0  0  0  0  0  0  0  0  0
    7.7305   38.8027   -3.8789 O   0  0  0  0  0  0  0  0  0  0  0  0
    9.1148   40.6212   -4.1033 N   0  0  0  0  0  0  0  0  0  0  0  0
    8.0554   41.5651   -4.3214 C   0  0  0  0  0  0  0  0  0  0  0  0
    8.2976   42.8484   -3.4990 C   0  0  1  0  0  0  0  0  0  0  0  0
    7.2131   43.8954   -3.7745 C   0  0  0  0  0  0  0  0  0  0  0  0
    5.8418   43.3003   -3.5288 C   0  0  0  0  0  0  0  0  0  0  0  0
   12.6685   37.5374   -6.1355 O   0  0  0  0  0  0  0  0  0  0  0  0
   12.7388   39.9590   -7.8986 N   0  0  0  0  0  0  0  0  0  0  0  0
   12.0037   41.9277   -8.7960 O   0  0  0  0  0  0  0  0  0  0  0  0
   13.4663   40.5681   -9.8876 O   0  0  0  0  0  0  0  0  0  0  0  0
   16.0752   41.7699   -9.6365 H   0  0  0  0  0  0  0  0  0  0  0  0
   18.2998   41.1360  -10.4848 H   0  0  0  0  0  0  0  0  0  0  0  0
   18.5273   40.1156  -12.7471 H   0  0  0  0  0  0  0  0  0  0  0  0
   12.8837   41.5550  -11.6224 H   0  0  0  0  0  0  0  0  0  0  0  0
   13.7067   42.6007  -10.4425 H   0  0  0  0  0  0  0  0  0  0  0  0
   12.5946   40.6592   -5.9718 H   0  0  0  0  0  0  0  0  0  0  0  0
   11.0711   40.6917   -6.8879 H   0  0  0  0  0  0  0  0  0  0  0  0
    8.3833   38.4246   -1.4910 H   0  0  0  0  0  0  0  0  0  0  0  0
    8.3986   36.0895   -0.6672 H   0  0  0  0  0  0  0  0  0  0  0  0
   10.1192   35.9401   -1.0853 H   0  0  0  0  0  0  0  0  0  0  0  0
    8.9074   36.1816   -2.3563 H   0  0  0  0  0  0  0  0  0  0  0  0
    9.7247   39.4697    0.3099 H   0  0  0  0  0  0  0  0  0  0  0  0
   10.5329   37.9216    0.6186 H   0  0  0  0  0  0  0  0  0  0  0  0
    8.7849   38.0880    0.8905 H   0  0  0  0  0  0  0  0  0  0  0  0
    9.2005   41.8538   -1.7795 H   0  0  0  0  0  0  0  0  0  0  0  0
    7.5087   42.2911   -1.5175 H   0  0  0  0  0  0  0  0  0  0  0  0
    8.7597   43.5397   -1.4965 H   0  0  0  0  0  0  0  0  0  0  0  0
   16.5119   39.8743  -14.1816 H   0  0  0  0  0  0  0  0  0  0  0  0
   14.2760   40.5268  -13.3392 H   0  0  0  0  0  0  0  0  0  0  0  0
   12.0082   39.4385   -3.8378 H   0  0  0  0  0  0  0  0  0  0  0  0
    9.9007   37.3929   -3.9329 H   0  0  0  0  0  0  0  0  0  0  0  0
   11.3603   37.9267   -1.9411 H   0  0  0  0  0  0  0  0  0  0  0  0
   10.6415   39.5410   -1.8594 H   0  0  0  0  0  0  0  0  0  0  0  0
   10.0803   40.8995   -4.1493 H   0  0  0  0  0  0  0  0  0  0  0  0
    7.1030   41.0805   -4.0800 H   0  0  0  0  0  0  0  0  0  0  0  0
    8.0287   41.8107   -5.3930 H   0  0  0  0  0  0  0  0  0  0  0  0
    9.2545   43.2641   -3.8288 H   0  0  0  0  0  0  0  0  0  0  0  0
    7.2872   44.2387   -4.8137 H   0  0  0  0  0  0  0  0  0  0  0  0
    7.3540   44.7755   -3.1331 H   0  0  0  0  0  0  0  0  0  0  0  0
    5.0504   44.0205   -3.7298 H   0  0  0  0  0  0  0  0  0  0  0  0
    5.7562   42.9597   -2.4927 H   0  0  0  0  0  0  0  0  0  0  0  0
    5.6759   42.4424   -4.1828 H   0  0  0  0  0  0  0  0  0  0  0  0
   13.2885   39.1204   -8.0286 H   0  0  0  0  0  0  0  0  0  0  0  0
  1  2  2  0  0  0  0
  1 14  1  0  0  0  0
  1 30  1  0  0  0  0
  2  3  1  0  0  0  0
  2 31  1  0  0  0  0
  3 15  2  0  0  0  0
  3 32  1  0  0  0  0
  4 14  1  0  0  0  0
  4 29  1  0  0  0  0
  4 33  1  0  0  0  0
  4 34  1  0  0  0  0
  5 27  1  0  0  0  0
  5 28  2  0  0  0  0
  5 29  1  0  0  0  0
  6 27  1  0  0  0  0
  6 35  1  0  0  0  0
  6 36  1  0  0  0  0
  7  8  1  0  0  0  0
  7  9  1  0  0  0  0
  7 19  1  0  0  0  0
  7 37  1  0  0  0  0
  8 38  1  0  0  0  0
  8 39  1  0  0  0  0
  8 40  1  0  0  0  0
  9 41  1  0  0  0  0
  9 42  1  0  0  0  0
  9 43  1  0  0  0  0
 10 18  1  0  0  0  0
 10 20  2  0  0  0  0
 10 21  1  0  0  0  0
 11 23  1  0  0  0  0
 11 44  1  0  0  0  0
 11 45  1  0  0  0  0
 11 46  1  0  0  0  0
 12 13  2  0  0  0  0
 13  6  1  6  0  0  0
 13 17  1  0  0  0  0
 13 26  1  0  0  0  0
 14 16  2  0  0  0  0
 15 16  1  0  0  0  0
 15 47  1  0  0  0  0
 16 48  1  0  0  0  0
 17 18  1  0  0  0  0
 17 49  1  0  0  0  0
 18 19  1  0  0  0  0
 18 50  1  6  0  0  0
 19 51  1  0  0  0  0
 19 52  1  0  0  0  0
 21 22  1  0  0  0  0
 21 53  1  0  0  0  0
 22 23  1  0  0  0  0
 22 54  1  0  0  0  0
 22 55  1  0  0  0  0
 23 24  1  0  0  0  0
 23 56  1  6  0  0  0
 24 25  1  0  0  0  0
 24 57  1  0  0  0  0
 24 58  1  0  0  0  0
 25 59  1  0  0  0  0
 25 60  1  0  0  0  0
 25 61  1  0  0  0  0
 27 62  1  0  0  0  0
M  END
$$$$
