6QE
 OpenBabel04161911003D

 53 56  0  0  0  0  0  0  0  0999 V2000
   -7.5106   19.3187  -12.8967 C   0  0  0  0  0  0  0  0  0  0  0  0
   -7.6220   17.8828  -13.1715 C   0  0  0  0  0  0  0  0  0  0  0  0
   -7.8991   15.7762  -12.7770 O   0  0  0  0  0  0  0  0  0  0  0  0
   -9.5101   14.6215  -16.3177 C   0  0  0  0  0  0  0  0  0  0  0  0
  -10.2525   15.7745  -16.5918 C   0  0  0  0  0  0  0  0  0  0  0  0
  -11.6126   15.7153  -16.8838 C   0  0  0  0  0  0  0  0  0  0  0  0
  -12.2646   14.4922  -16.8586 C   0  0  0  0  0  0  0  0  0  0  0  0
  -11.5367   13.3444  -16.5633 C   0  0  0  0  0  0  0  0  0  0  0  0
  -10.1722   13.3902  -16.3014 C   0  0  0  0  0  0  0  0  0  0  0  0
   -7.4528   17.2154  -14.4101 C   0  0  0  0  0  0  0  0  0  0  0  0
   -7.5255   19.6079  -17.2734 C   0  0  0  0  0  0  0  0  0  0  0  0
   -6.4977   19.1197  -18.0858 C   0  0  0  0  0  0  0  0  0  0  0  0
   -6.2590   19.7430  -19.4373 C   0  0  0  0  0  0  0  0  0  0  0  0
   -9.3446   16.3552  -21.2157 C   0  0  0  0  0  0  0  0  0  0  0  0
   -5.7722   17.9888  -17.6748 C   0  0  0  0  0  0  0  0  0  0  0  0
   -6.0878   17.3511  -16.4754 C   0  0  0  0  0  0  0  0  0  0  0  0
   -7.8701   17.0176  -12.1871 N   0  0  0  0  0  0  0  0  0  0  0  0
   -7.6700   15.8957  -14.1169 C   0  0  0  0  0  0  0  0  0  0  0  0
   -7.7158   14.5942  -14.8345 C   0  0  0  0  0  0  0  0  0  0  0  0
   -8.1635   14.7836  -16.1810 O   0  0  0  0  0  0  0  0  0  0  0  0
  -12.1749   12.1645  -16.5308 F   0  0  0  0  0  0  0  0  0  0  0  0
   -9.5167   12.2523  -16.0411 F   0  0  0  0  0  0  0  0  0  0  0  0
   -7.1584   17.8078  -15.6945 C   0  0  0  0  0  0  0  0  0  0  0  0
   -7.8785   18.9274  -16.1125 C   0  0  0  0  0  0  0  0  0  0  0  0
   -7.4886   19.9538  -20.2137 N   0  0  0  0  0  0  0  0  0  0  0  0
   -8.0564   18.7894  -21.2843 S   0  0  0  0  0  0  0  0  0  0  0  0
   -6.9128   17.9503  -21.5896 O   0  0  0  0  0  0  0  0  0  0  0  0
   -8.8101   19.4464  -22.3198 O   0  0  0  0  0  0  0  0  0  0  0  0
   -9.2009   17.6289  -20.5034 C   0  0  0  0  0  0  0  0  0  0  0  0
   -9.1143   17.4694  -19.0235 C   0  0  0  0  0  0  0  0  0  0  0  0
  -10.2136   18.3159  -19.5913 C   0  0  0  0  0  0  0  0  0  0  0  0
   -7.6664   19.5289  -11.8389 H   0  0  0  0  0  0  0  0  0  0  0  0
   -8.2674   19.8674  -13.4611 H   0  0  0  0  0  0  0  0  0  0  0  0
   -6.5233   19.6868  -13.1912 H   0  0  0  0  0  0  0  0  0  0  0  0
   -9.7491   16.7356  -16.6230 H   0  0  0  0  0  0  0  0  0  0  0  0
  -12.1581   16.6282  -17.1350 H   0  0  0  0  0  0  0  0  0  0  0  0
  -13.3287   14.4294  -17.0634 H   0  0  0  0  0  0  0  0  0  0  0  0
   -8.1466   20.4348  -17.6235 H   0  0  0  0  0  0  0  0  0  0  0  0
   -5.5418   19.1324  -19.9950 H   0  0  0  0  0  0  0  0  0  0  0  0
   -5.7592   20.6947  -19.2358 H   0  0  0  0  0  0  0  0  0  0  0  0
  -10.0456   15.6749  -20.7137 H   0  0  0  0  0  0  0  0  0  0  0  0
   -8.3828   15.8204  -21.2512 H   0  0  0  0  0  0  0  0  0  0  0  0
   -9.6913   16.4891  -22.2475 H   0  0  0  0  0  0  0  0  0  0  0  0
   -4.9727   17.5909  -18.3063 H   0  0  0  0  0  0  0  0  0  0  0  0
   -5.4814   16.5045  -16.1473 H   0  0  0  0  0  0  0  0  0  0  0  0
   -8.3628   13.8949  -14.2922 H   0  0  0  0  0  0  0  0  0  0  0  0
   -6.7069   14.1734  -14.8592 H   0  0  0  0  0  0  0  0  0  0  0  0
   -8.7278   19.2894  -15.5347 H   0  0  0  0  0  0  0  0  0  0  0  0
   -7.9947   20.8266  -20.0986 H   0  0  0  0  0  0  0  0  0  0  0  0
   -8.2604   17.8176  -18.5622 H   0  0  0  0  0  0  0  0  0  0  0  0
   -9.3274   16.4937  -18.6534 H   0  0  0  0  0  0  0  0  0  0  0  0
  -11.2238   17.9565  -19.5616 H   0  0  0  0  0  0  0  0  0  0  0  0
  -10.1349   19.3855  -19.4837 H   0  0  0  0  0  0  0  0  0  0  0  0
  1  2  1  0  0  0  0
  1 32  1  0  0  0  0
  1 33  1  0  0  0  0
  1 34  1  0  0  0  0
  2 10  1  0  0  0  0
  2 17  2  0  0  0  0
  3 17  1  0  0  0  0
  3 18  1  0  0  0  0
  4  5  2  0  0  0  0
  4  9  1  0  0  0  0
  4 20  1  0  0  0  0
  5  6  1  0  0  0  0
  5 35  1  0  0  0  0
  6  7  2  0  0  0  0
  6 36  1  0  0  0  0
  7  8  1  0  0  0  0
  7 37  1  0  0  0  0
  8  9  2  0  0  0  0
  8 21  1  0  0  0  0
  9 22  1  0  0  0  0
 10 18  2  0  0  0  0
 10 23  1  0  0  0  0
 11 12  2  0  0  0  0
 11 24  1  0  0  0  0
 11 38  1  0  0  0  0
 12 13  1  0  0  0  0
 12 15  1  0  0  0  0
 13 25  1  0  0  0  0
 13 39  1  0  0  0  0
 13 40  1  0  0  0  0
 14 29  1  0  0  0  0
 14 41  1  0  0  0  0
 14 42  1  0  0  0  0
 14 43  1  0  0  0  0
 15 16  2  0  0  0  0
 15 44  1  0  0  0  0
 16 23  1  0  0  0  0
 16 45  1  0  0  0  0
 18 19  1  0  0  0  0
 19 20  1  0  0  0  0
 19 46  1  0  0  0  0
 19 47  1  0  0  0  0
 23 24  2  0  0  0  0
 24 48  1  0  0  0  0
 25 26  1  0  0  0  0
 25 49  1  0  0  0  0
 26 27  2  0  0  0  0
 26 28  2  0  0  0  0
 26 29  1  0  0  0  0
 29 30  1  0  0  0  0
 29 31  1  0  0  0  0
 30 31  1  0  0  0  0
 30 50  1  0  0  0  0
 30 51  1  0  0  0  0
 31 52  1  0  0  0  0
 31 53  1  0  0  0  0
M  END
$$$$
