6QG
 OpenBabel04161911003D

 50 53  0  0  0  0  0  0  0  0999 V2000
   11.1840   13.5382   16.5959 C   0  0  0  0  0  0  0  0  0  0  0  0
    6.1420   17.4640   16.5238 C   0  0  0  0  0  0  0  0  0  0  0  0
    7.9721   18.9844   16.1882 C   0  0  0  0  0  0  0  0  0  0  0  0
    9.8632   13.4048   16.1338 C   0  0  0  0  0  0  0  0  0  0  0  0
    9.3860   15.5927   16.9602 C   0  0  0  0  0  0  0  0  0  0  0  0
    7.1934   17.9153   15.7278 C   0  0  0  0  0  0  0  0  0  0  0  0
    7.4486   17.3549   14.4096 C   0  0  0  0  0  0  0  0  0  0  0  0
    6.6940   19.1003   18.2352 C   0  0  0  0  0  0  0  0  0  0  0  0
   10.6762   15.7403   17.4339 C   0  0  0  0  0  0  0  0  0  0  0  0
    8.9741   14.4530   16.3348 C   0  0  0  0  0  0  0  0  0  0  0  0
    7.6048   16.0474   14.0470 C   0  0  0  0  0  0  0  0  0  0  0  0
    7.6197   18.0692   13.1954 C   0  0  0  0  0  0  0  0  0  0  0  0
   10.9327   17.0313   18.1433 C   0  0  0  0  0  0  0  0  0  0  0  0
    9.9550   17.1604   19.3067 C   0  0  0  0  0  0  0  0  0  0  0  0
    9.8864   18.5850   19.7813 C   0  0  0  0  0  0  0  0  0  0  0  0
    7.5691   19.5046   12.9327 C   0  0  0  0  0  0  0  0  0  0  0  0
    7.6309   20.0272   20.3669 N   0  0  0  0  0  0  0  0  0  0  0  0
   11.5848   14.7087   17.2524 C   0  0  0  0  0  0  0  0  0  0  0  0
    5.8889   18.0607   17.7616 C   0  0  0  0  0  0  0  0  0  0  0  0
    7.7118   19.5806   17.4182 C   0  0  0  0  0  0  0  0  0  0  0  0
    6.4298   19.7040   19.5886 C   0  0  0  0  0  0  0  0  0  0  0  0
    7.6214   14.6391   14.5594 C   0  0  0  0  0  0  0  0  0  0  0  0
    7.7918   17.2399   12.1646 N   0  0  0  0  0  0  0  0  0  0  0  0
    7.8645   17.6573   21.2431 O   0  0  0  0  0  0  0  0  0  0  0  0
    9.3458   19.4963   22.1395 O   0  0  0  0  0  0  0  0  0  0  0  0
    7.8089   15.9905   12.7007 O   0  0  0  0  0  0  0  0  0  0  0  0
    7.6684   14.5036   15.9548 O   0  0  0  0  0  0  0  0  0  0  0  0
    8.6421   18.8595   21.0287 S   0  0  0  0  0  0  0  0  0  0  0  0
   11.8943   12.7329   16.4522 H   0  0  0  0  0  0  0  0  0  0  0  0
    5.5085   16.6463   16.1891 H   0  0  0  0  0  0  0  0  0  0  0  0
    8.7944   19.3588   15.5887 H   0  0  0  0  0  0  0  0  0  0  0  0
    9.5608   12.4941   15.6349 H   0  0  0  0  0  0  0  0  0  0  0  0
    8.6708   16.3818   17.1068 H   0  0  0  0  0  0  0  0  0  0  0  0
   10.7775   17.8456   17.4201 H   0  0  0  0  0  0  0  0  0  0  0  0
   11.9637   17.0668   18.4951 H   0  0  0  0  0  0  0  0  0  0  0  0
   10.2696   16.4963   20.1166 H   0  0  0  0  0  0  0  0  0  0  0  0
    8.9444   16.8547   19.0186 H   0  0  0  0  0  0  0  0  0  0  0  0
    9.6884   19.2521   18.9502 H   0  0  0  0  0  0  0  0  0  0  0  0
   10.8549   18.8571   20.2071 H   0  0  0  0  0  0  0  0  0  0  0  0
    7.7029   19.6930   11.8639 H   0  0  0  0  0  0  0  0  0  0  0  0
    8.3783   20.0023   13.4704 H   0  0  0  0  0  0  0  0  0  0  0  0
    6.6094   19.9203   13.2491 H   0  0  0  0  0  0  0  0  0  0  0  0
    7.8324   21.0213   20.5360 H   0  0  0  0  0  0  0  0  0  0  0  0
   12.6044   14.7996   17.6233 H   0  0  0  0  0  0  0  0  0  0  0  0
    5.0618   17.6975   18.3713 H   0  0  0  0  0  0  0  0  0  0  0  0
    8.3383   20.4029   17.7579 H   0  0  0  0  0  0  0  0  0  0  0  0
    5.7921   19.0207   20.1604 H   0  0  0  0  0  0  0  0  0  0  0  0
    5.8350   20.6201   19.4182 H   0  0  0  0  0  0  0  0  0  0  0  0
    8.4733   14.1492   14.0880 H   0  0  0  0  0  0  0  0  0  0  0  0
    6.7013   14.1669   14.1922 H   0  0  0  0  0  0  0  0  0  0  0  0
  1  4  2  0  0  0  0
  1 18  1  0  0  0  0
  1 29  1  0  0  0  0
  2  6  2  0  0  0  0
  2 19  1  0  0  0  0
  2 30  1  0  0  0  0
  3  6  1  0  0  0  0
  3 20  2  0  0  0  0
  3 31  1  0  0  0  0
  4 10  1  0  0  0  0
  4 32  1  0  0  0  0
  5  9  1  0  0  0  0
  5 10  2  0  0  0  0
  5 33  1  0  0  0  0
  6  7  1  0  0  0  0
  7 11  2  0  0  0  0
  7 12  1  0  0  0  0
  8 19  2  0  0  0  0
  8 20  1  0  0  0  0
  8 21  1  0  0  0  0
  9 13  1  0  0  0  0
  9 18  2  0  0  0  0
 10 27  1  0  0  0  0
 11 22  1  0  0  0  0
 11 26  1  0  0  0  0
 12 16  1  0  0  0  0
 12 23  2  0  0  0  0
 13 14  1  0  0  0  0
 13 34  1  0  0  0  0
 13 35  1  0  0  0  0
 14 15  1  0  0  0  0
 14 36  1  0  0  0  0
 14 37  1  0  0  0  0
 15 28  1  0  0  0  0
 15 38  1  0  0  0  0
 15 39  1  0  0  0  0
 16 40  1  0  0  0  0
 16 41  1  0  0  0  0
 16 42  1  0  0  0  0
 17 21  1  0  0  0  0
 17 28  1  0  0  0  0
 17 43  1  0  0  0  0
 18 44  1  0  0  0  0
 19 45  1  0  0  0  0
 20 46  1  0  0  0  0
 21 47  1  0  0  0  0
 21 48  1  0  0  0  0
 22 27  1  0  0  0  0
 22 49  1  0  0  0  0
 22 50  1  0  0  0  0
 23 26  1  0  0  0  0
 24 28  2  0  0  0  0
 25 28  2  0  0  0  0
M  END
$$$$
