6U5
 OpenBabel04161911023D

 35 36  0  0  0  0  0  0  0  0999 V2000
   11.9295   30.1787   -4.8640 N   0  0  0  0  0  0  0  0  0  0  0  0
    8.1861   28.1727   -6.7124 C   0  0  0  0  0  0  0  0  0  0  0  0
    7.7242   28.3049   -5.4029 C   0  0  0  0  0  0  0  0  0  0  0  0
    8.5291   28.8714   -4.4055 C   0  0  0  0  0  0  0  0  0  0  0  0
    9.8163   29.3259   -4.7532 C   0  0  0  0  0  0  0  0  0  0  0  0
   10.8800   29.9339   -4.0768 C   0  0  0  0  0  0  0  0  0  0  0  0
   10.2624   29.1820   -6.0607 C   0  0  0  0  0  0  0  0  0  0  0  0
    8.8529   26.7104   -9.4550 O   0  0  0  0  0  0  0  0  0  0  0  0
    7.6053   27.4223   -9.2854 S   0  0  0  0  0  0  0  0  0  0  0  0
    6.3718   26.9161   -9.8492 O   0  0  0  0  0  0  0  0  0  0  0  0
    7.8339   29.1230   -9.8207 C   0  0  0  0  0  0  0  0  0  0  0  0
    7.4142   29.3322  -11.2663 C   0  0  0  0  0  0  0  0  0  0  0  0
    6.3803   30.4489  -11.3924 C   0  0  0  0  0  0  0  0  0  0  0  0
    7.0152   31.7801  -11.7451 C   0  0  0  0  0  0  0  0  0  0  0  0
    7.2879   27.6152   -7.6598 N   0  0  0  0  0  0  0  0  0  0  0  0
    9.4745   28.6033   -7.0506 C   0  0  0  0  0  0  0  0  0  0  0  0
   11.5406   29.7082   -6.0716 N   0  3  0  0  0  0  0  0  0  0  0  0
   12.4423   29.8175   -7.1935 C   0  0  0  0  0  0  0  0  0  0  0  0
    6.7298   27.9586   -5.1270 H   0  0  0  0  0  0  0  0  0  0  0  0
    8.1625   28.9594   -3.3877 H   0  0  0  0  0  0  0  0  0  0  0  0
   10.9266   30.2108   -3.0265 H   0  0  0  0  0  0  0  0  0  0  0  0
    8.8952   29.3627   -9.7127 H   0  0  0  0  0  0  0  0  0  0  0  0
    7.2639   29.7539   -9.1334 H   0  0  0  0  0  0  0  0  0  0  0  0
    6.9839   28.4175  -11.6820 H   0  0  0  0  0  0  0  0  0  0  0  0
    8.3027   29.5612  -11.8665 H   0  0  0  0  0  0  0  0  0  0  0  0
    5.8070   30.5611  -10.4651 H   0  0  0  0  0  0  0  0  0  0  0  0
    5.6686   30.1833  -12.1811 H   0  0  0  0  0  0  0  0  0  0  0  0
    6.2402   32.5466  -11.8383 H   0  0  0  0  0  0  0  0  0  0  0  0
    7.5449   31.7131  -12.7008 H   0  0  0  0  0  0  0  0  0  0  0  0
    7.7231   32.0931  -10.9723 H   0  0  0  0  0  0  0  0  0  0  0  0
    6.3499   27.3414   -7.3686 H   0  0  0  0  0  0  0  0  0  0  0  0
    9.8678   28.4990   -8.0491 H   0  0  0  0  0  0  0  0  0  0  0  0
   11.9855   29.4059   -8.0963 H   0  0  0  0  0  0  0  0  0  0  0  0
   13.3557   29.2622   -6.9652 H   0  0  0  0  0  0  0  0  0  0  0  0
   12.6771   30.8726   -7.3589 H   0  0  0  0  0  0  0  0  0  0  0  0
  1  6  1  0  0  0  0
  1 17  1  0  0  0  0
  2  3  1  0  0  0  0
  2 15  1  0  0  0  0
  2 16  2  0  0  0  0
  3  4  2  0  0  0  0
  3 19  1  0  0  0  0
  4  5  1  0  0  0  0
  4 20  1  0  0  0  0
  5  6  2  0  0  0  0
  5  7  1  0  0  0  0
  6 21  1  0  0  0  0
  7 16  1  0  0  0  0
  7 17  2  0  0  0  0
  8  9  2  0  0  0  0
  9 10  2  0  0  0  0
  9 11  1  0  0  0  0
  9 15  1  0  0  0  0
 11 12  1  0  0  0  0
 11 22  1  0  0  0  0
 11 23  1  0  0  0  0
 12 13  1  0  0  0  0
 12 24  1  0  0  0  0
 12 25  1  0  0  0  0
 13 14  1  0  0  0  0
 13 26  1  0  0  0  0
 13 27  1  0  0  0  0
 14 28  1  0  0  0  0
 14 29  1  0  0  0  0
 14 30  1  0  0  0  0
 15 31  1  0  0  0  0
 16 32  1  0  0  0  0
 17 18  1  0  0  0  0
 18 33  1  0  0  0  0
 18 34  1  0  0  0  0
 18 35  1  0  0  0  0
M  CHG  1  17   1
M  END
$$$$
