6YL
 OpenBabel04161910583D

 53 55  0  0  1  0  0  0  0  0999 V2000
   34.7750   46.3309    8.7454 C   0  0  0  0  0  0  0  0  0  0  0  0
   35.0312   46.2022   10.1118 C   0  0  0  0  0  0  0  0  0  0  0  0
   29.8827   45.4605    8.3009 C   0  0  0  0  0  0  0  0  0  0  0  0
   33.4777   44.3508   10.2110 C   0  0  0  0  0  0  0  0  0  0  0  0
   27.7880   45.9459    9.2936 C   0  0  0  0  0  0  0  0  0  0  0  0
   29.8350   48.1727    7.0594 C   0  0  0  0  0  0  0  0  0  0  0  0
   28.7831   46.3381    8.4025 C   0  0  0  0  0  0  0  0  0  0  0  0
   28.7156   47.5938    7.6345 C   0  0  0  0  0  0  0  0  0  0  0  0
   33.8802   45.4573    8.0996 C   0  0  0  0  0  0  0  0  0  0  0  0
   33.1835   44.4686    8.8329 C   0  0  0  0  0  0  0  0  0  0  0  0
   29.9574   44.2901    9.0605 C   0  0  0  0  0  0  0  0  0  0  0  0
   34.3809   45.2039   10.8335 C   0  0  0  0  0  0  0  0  0  0  0  0
   27.6668   48.5145    7.2783 C   0  0  0  0  0  0  0  0  0  0  0  0
   28.8818   43.9940    9.9142 C   0  0  0  0  0  0  0  0  0  0  0  0
   33.6795   45.7070    6.6487 C   0  0  0  0  0  0  0  0  0  0  0  0
   26.2111   48.4990    7.5741 C   0  0  0  0  0  0  0  0  0  0  0  0
   32.7383   42.1036    8.1347 C   0  0  0  0  0  0  0  0  0  0  0  0
   30.2638   50.2167    5.6722 C   0  0  0  0  0  0  0  0  0  0  0  0
   34.3226   45.3823    4.3100 C   0  0  0  0  0  0  0  0  0  0  0  0
   35.5301   44.0930    6.0366 C   0  0  0  0  0  0  0  0  0  0  0  0
   32.1515   43.5276    8.2201 C   0  0  1  0  0  0  0  0  0  0  0  0
   27.8040   44.7979   10.0390 N   0  0  0  0  0  0  0  0  0  0  0  0
   28.1261   49.5364    6.5464 N   0  0  0  0  0  0  0  0  0  0  0  0
   29.4327   49.3040    6.4200 N   0  3  0  0  0  0  0  0  0  0  0  0
   28.8975   42.8538   10.6974 N   0  0  0  0  0  0  0  0  0  0  0  0
   34.4867   45.0546    5.7223 N   0  0  0  0  0  0  0  0  0  0  0  0
   32.8308   46.5372    6.3330 O   0  0  0  0  0  0  0  0  0  0  0  0
   30.9910   43.3859    9.0646 O   0  0  0  0  0  0  0  0  0  0  0  0
   34.6402   45.0700   12.1378 F   0  0  0  0  0  0  0  0  0  0  0  0
   35.2647   47.1277    8.1874 H   0  0  0  0  0  0  0  0  0  0  0  0
   35.7180   46.8720   10.6191 H   0  0  0  0  0  0  0  0  0  0  0  0
   30.6845   45.7085    7.6158 H   0  0  0  0  0  0  0  0  0  0  0  0
   32.9878   43.5950   10.8216 H   0  0  0  0  0  0  0  0  0  0  0  0
   26.9069   46.5530    9.4685 H   0  0  0  0  0  0  0  0  0  0  0  0
   30.8753   47.8832    7.0469 H   0  0  0  0  0  0  0  0  0  0  0  0
   25.7072   49.3655    7.1165 H   0  0  0  0  0  0  0  0  0  0  0  0
   26.0278   48.5612    8.6492 H   0  0  0  0  0  0  0  0  0  0  0  0
   25.7381   47.6016    7.1698 H   0  0  0  0  0  0  0  0  0  0  0  0
   32.0016   41.4086    7.7134 H   0  0  0  0  0  0  0  0  0  0  0  0
   32.9818   41.7046    9.1292 H   0  0  0  0  0  0  0  0  0  0  0  0
   33.6445   42.0616    7.5236 H   0  0  0  0  0  0  0  0  0  0  0  0
   29.6508   51.0320    5.2773 H   0  0  0  0  0  0  0  0  0  0  0  0
   30.7266   49.6704    4.8468 H   0  0  0  0  0  0  0  0  0  0  0  0
   31.0260   50.6199    6.3431 H   0  0  0  0  0  0  0  0  0  0  0  0
   35.0125   44.7943    3.6953 H   0  0  0  0  0  0  0  0  0  0  0  0
   34.5231   46.4461    4.1501 H   0  0  0  0  0  0  0  0  0  0  0  0
   33.2958   45.1613    4.0063 H   0  0  0  0  0  0  0  0  0  0  0  0
   35.6235   43.9074    7.1059 H   0  0  0  0  0  0  0  0  0  0  0  0
   36.4859   44.4709    5.6557 H   0  0  0  0  0  0  0  0  0  0  0  0
   35.2880   43.1545    5.5305 H   0  0  0  0  0  0  0  0  0  0  0  0
   31.8564   43.8267    7.2098 H   0  0  0  0  0  0  0  0  0  0  0  0
   28.1003   42.6661   11.2851 H   0  0  0  0  0  0  0  0  0  0  0  0
   29.6623   42.2042   10.5982 H   0  0  0  0  0  0  0  0  0  0  0  0
  1  2  2  0  0  0  0
  1  9  1  0  0  0  0
  1 30  1  0  0  0  0
  2 12  1  0  0  0  0
  2 31  1  0  0  0  0
  3  7  2  0  0  0  0
  3 11  1  0  0  0  0
  3 32  1  0  0  0  0
  4 10  1  0  0  0  0
  4 12  2  0  0  0  0
  4 33  1  0  0  0  0
  5  7  1  0  0  0  0
  5 22  2  0  0  0  0
  5 34  1  0  0  0  0
  6  8  1  0  0  0  0
  6 24  2  0  0  0  0
  6 35  1  0  0  0  0
  7  8  1  0  0  0  0
  8 13  2  0  0  0  0
  9 10  2  0  0  0  0
  9 15  1  0  0  0  0
 10 21  1  0  0  0  0
 11 14  2  0  0  0  0
 11 28  1  0  0  0  0
 12 29  1  0  0  0  0
 13 16  1  0  0  0  0
 13 23  1  0  0  0  0
 14 22  1  0  0  0  0
 14 25  1  0  0  0  0
 15 26  1  0  0  0  0
 15 27  2  0  0  0  0
 16 36  1  0  0  0  0
 16 37  1  0  0  0  0
 16 38  1  0  0  0  0
 17 21  1  0  0  0  0
 17 39  1  0  0  0  0
 17 40  1  0  0  0  0
 17 41  1  0  0  0  0
 18 24  1  0  0  0  0
 18 42  1  0  0  0  0
 18 43  1  0  0  0  0
 18 44  1  0  0  0  0
 19 26  1  0  0  0  0
 19 45  1  0  0  0  0
 19 46  1  0  0  0  0
 19 47  1  0  0  0  0
 20 26  1  0  0  0  0
 20 48  1  0  0  0  0
 20 49  1  0  0  0  0
 20 50  1  0  0  0  0
 21 28  1  0  0  0  0
 21 51  1  6  0  0  0
 23 24  1  0  0  0  0
 25 52  1  0  0  0  0
 25 53  1  0  0  0  0
M  CHG  1  24   1
M  END
$$$$
