6Z3
 OpenBabel04161911033D

 70 73  0  0  1  0  0  0  0  0999 V2000
   10.3921   57.6216   97.7128 C   0  0  0  0  0  0  0  0  0  0  0  0
    9.9373   58.3497   96.4459 C   0  0  0  0  0  0  0  0  0  0  0  0
   10.3294   56.8859   96.3833 C   0  0  0  0  0  0  0  0  0  0  0  0
    9.2601   56.0567   96.2700 C   0  0  0  0  0  0  0  0  0  0  0  0
    8.3399   55.3615   96.1681 N   0  0  0  0  0  0  0  0  0  0  0  0
   11.5799   56.4225   95.7378 C   0  0  0  0  0  0  0  0  0  0  0  0
   12.6264   57.0021   95.9136 O   0  0  0  0  0  0  0  0  0  0  0  0
   11.4932   55.2843   94.9785 N   0  0  0  0  0  0  0  0  0  0  0  0
   12.6431   54.6858   94.2743 C   0  0  1  0  0  0  0  0  0  0  0  0
   12.8790   53.2515   94.7858 C   0  0  0  0  0  0  0  0  0  0  0  0
   11.5743   52.4463   94.8598 C   0  0  0  0  0  0  0  0  0  0  0  0
   13.4304   53.3527   96.2103 C   0  0  0  0  0  0  0  0  0  0  0  0
   13.8900   52.5034   93.9213 C   0  0  0  0  0  0  0  0  0  0  0  0
   12.2769   54.7497   92.7806 C   0  0  0  0  0  0  0  0  0  0  0  0
   11.1183   54.5309   92.4199 O   0  0  0  0  0  0  0  0  0  0  0  0
   13.3005   55.0174   91.8841 N   0  0  0  0  0  0  0  0  0  0  0  0
   14.6799   55.3267   92.2004 C   0  0  0  0  0  0  0  0  0  0  0  0
   15.1669   56.0970   90.9863 C   0  0  2  0  0  0  0  0  0  0  0  0
   14.7868   57.4709   91.0650 O   0  0  0  0  0  0  0  0  0  0  0  0
   14.4092   55.4813   89.8320 C   0  0  0  0  0  0  0  0  0  0  0  0
   13.0506   55.1601   90.4554 C   0  0  1  0  0  0  0  0  0  0  0  0
   12.6022   53.8437   89.8217 C   0  0  0  0  0  0  0  0  0  0  0  0
   13.1083   52.7856   90.1905 O   0  0  0  0  0  0  0  0  0  0  0  0
   11.7332   54.0065   88.7781 N   0  0  0  0  0  0  0  0  0  0  0  0
   11.2646   52.9011   88.0024 C   0  0  0  0  0  0  0  0  0  0  0  0
   12.1010   52.6626   86.7677 C   0  0  0  0  0  0  0  0  0  0  0  0
   12.9135   53.6580   86.2336 C   0  0  0  0  0  0  0  0  0  0  0  0
   13.6712   53.4201   85.1162 C   0  0  0  0  0  0  0  0  0  0  0  0
   12.0357   51.4274   86.1375 C   0  0  0  0  0  0  0  0  0  0  0  0
   12.8060   51.1801   85.0196 C   0  0  0  0  0  0  0  0  0  0  0  0
   13.6360   52.1844   84.5178 C   0  0  0  0  0  0  0  0  0  0  0  0
   14.4105   51.9529   83.3216 C   0  0  0  0  0  0  0  0  0  0  0  0
   16.0421   52.4412   83.1681 S   0  0  0  0  0  0  0  0  0  0  0  0
   16.0719   51.7869   81.5828 C   0  0  0  0  0  0  0  0  0  0  0  0
   14.9377   51.2537   81.1685 N   0  0  0  0  0  0  0  0  0  0  0  0
   13.9663   51.3465   82.1597 C   0  0  0  0  0  0  0  0  0  0  0  0
   12.6101   50.8265   81.9384 C   0  0  0  0  0  0  0  0  0  0  0  0
    9.6615   57.3829   98.4875 H   0  0  0  0  0  0  0  0  0  0  0  0
   11.3620   57.8099   98.1209 H   0  0  0  0  0  0  0  0  0  0  0  0
   10.5838   59.0439   95.9640 H   0  0  0  0  0  0  0  0  0  0  0  0
    8.8816   58.6112   96.3392 H   0  0  0  0  0  0  0  0  0  0  0  0
   10.6012   54.7946   94.8548 H   0  0  0  0  0  0  0  0  0  0  0  0
   13.5265   55.2962   94.4684 H   0  0  0  0  0  0  0  0  0  0  0  0
   11.7724   51.4363   95.2344 H   0  0  0  0  0  0  0  0  0  0  0  0
   11.1072   52.3714   93.8751 H   0  0  0  0  0  0  0  0  0  0  0  0
   10.8611   52.9199   95.5504 H   0  0  0  0  0  0  0  0  0  0  0  0
   14.3628   53.9258   96.2136 H   0  0  0  0  0  0  0  0  0  0  0  0
   13.6237   52.3531   96.6073 H   0  0  0  0  0  0  0  0  0  0  0  0
   12.7070   53.8551   96.8647 H   0  0  0  0  0  0  0  0  0  0  0  0
   13.5291   52.4086   92.8911 H   0  0  0  0  0  0  0  0  0  0  0  0
   14.0606   51.4941   94.3152 H   0  0  0  0  0  0  0  0  0  0  0  0
   14.8517   53.0292   93.9099 H   0  0  0  0  0  0  0  0  0  0  0  0
   15.2496   54.3947   92.3095 H   0  0  0  0  0  0  0  0  0  0  0  0
   14.7729   55.9234   93.1046 H   0  0  0  0  0  0  0  0  0  0  0  0
   16.2421   56.0156   90.8510 H   0  0  0  0  0  0  0  0  0  0  0  0
   15.1877   57.8571   91.8651 H   0  0  0  0  0  0  0  0  0  0  0  0
   14.9261   54.5748   89.4828 H   0  0  0  0  0  0  0  0  0  0  0  0
   14.2971   56.1755   89.0030 H   0  0  0  0  0  0  0  0  0  0  0  0
   12.3014   55.9136   90.2214 H   0  0  0  0  0  0  0  0  0  0  0  0
   11.4061   54.9439   88.5700 H   0  0  0  0  0  0  0  0  0  0  0  0
   10.2412   53.1036   87.6714 H   0  0  0  0  0  0  0  0  0  0  0  0
   11.2883   51.9849   88.5979 H   0  0  0  0  0  0  0  0  0  0  0  0
   12.9685   54.6280   86.7045 H   0  0  0  0  0  0  0  0  0  0  0  0
   14.3148   54.1892   84.7072 H   0  0  0  0  0  0  0  0  0  0  0  0
   11.3971   50.6401   86.5272 H   0  0  0  0  0  0  0  0  0  0  0  0
   12.7760   50.2000   84.5628 H   0  0  0  0  0  0  0  0  0  0  0  0
   16.9666   51.8133   80.9636 H   0  0  0  0  0  0  0  0  0  0  0  0
   12.5473   50.4023   80.9464 H   0  0  0  0  0  0  0  0  0  0  0  0
   11.8672   51.6259   82.0486 H   0  0  0  0  0  0  0  0  0  0  0  0
   12.3782   50.0372   82.6617 H   0  0  0  0  0  0  0  0  0  0  0  0
  1  2  1  0  0  0  0
  1  3  1  0  0  0  0
  1 38  1  0  0  0  0
  1 39  1  0  0  0  0
  2  3  1  0  0  0  0
  2 40  1  0  0  0  0
  2 41  1  0  0  0  0
  3  4  1  0  0  0  0
  3  6  1  0  0  0  0
  4  5  3  0  0  0  0
  6  7  2  0  0  0  0
  6  8  1  0  0  0  0
  8  9  1  0  0  0  0
  8 42  1  0  0  0  0
  9 10  1  0  0  0  0
  9 14  1  0  0  0  0
  9 43  1  1  0  0  0
 10 11  1  0  0  0  0
 10 12  1  0  0  0  0
 10 13  1  0  0  0  0
 11 44  1  0  0  0  0
 11 45  1  0  0  0  0
 11 46  1  0  0  0  0
 12 47  1  0  0  0  0
 12 48  1  0  0  0  0
 12 49  1  0  0  0  0
 13 50  1  0  0  0  0
 13 51  1  0  0  0  0
 13 52  1  0  0  0  0
 14 15  2  0  0  0  0
 14 16  1  0  0  0  0
 16 17  1  0  0  0  0
 16 21  1  0  0  0  0
 17 18  1  0  0  0  0
 17 53  1  0  0  0  0
 17 54  1  0  0  0  0
 18 19  1  0  0  0  0
 18 20  1  0  0  0  0
 18 55  1  6  0  0  0
 19 56  1  0  0  0  0
 20 21  1  0  0  0  0
 20 57  1  0  0  0  0
 20 58  1  0  0  0  0
 21 22  1  0  0  0  0
 21 59  1  6  0  0  0
 22 23  2  0  0  0  0
 22 24  1  0  0  0  0
 24 25  1  0  0  0  0
 24 60  1  0  0  0  0
 25 26  1  0  0  0  0
 25 61  1  0  0  0  0
 25 62  1  0  0  0  0
 26 27  2  0  0  0  0
 26 29  1  0  0  0  0
 27 28  1  0  0  0  0
 27 63  1  0  0  0  0
 28 31  2  0  0  0  0
 28 64  1  0  0  0  0
 29 30  2  0  0  0  0
 29 65  1  0  0  0  0
 30 31  1  0  0  0  0
 30 66  1  0  0  0  0
 31 32  1  0  0  0  0
 32 33  1  0  0  0  0
 32 36  2  0  0  0  0
 33 34  1  0  0  0  0
 34 35  2  0  0  0  0
 34 67  1  0  0  0  0
 35 36  1  0  0  0  0
 36 37  1  0  0  0  0
 37 68  1  0  0  0  0
 37 69  1  0  0  0  0
 37 70  1  0  0  0  0
M  END
$$$$
