6ZV
 OpenBabel04161910583D

 70 74  0  0  0  0  0  0  0  0999 V2000
   19.2281   42.9939  -13.0130 C   0  0  0  0  0  0  0  0  0  0  0  0
   24.4525   34.5223   -9.4839 C   0  0  0  0  0  0  0  0  0  0  0  0
   19.8984   44.2839  -12.5599 C   0  0  0  0  0  0  0  0  0  0  0  0
   24.8749   34.8083   -7.2052 C   0  0  0  0  0  0  0  0  0  0  0  0
   25.5676   33.6128   -7.1816 C   0  0  0  0  0  0  0  0  0  0  0  0
   25.6905   32.9474   -8.3759 C   0  0  0  0  0  0  0  0  0  0  0  0
   20.0797   42.1942  -13.9111 N   0  0  0  0  0  0  0  0  0  0  0  0
   20.8748   37.0711  -10.4192 C   0  0  0  0  0  0  0  0  0  0  0  0
   21.9509   36.2779  -10.0219 C   0  0  0  0  0  0  0  0  0  0  0  0
   23.7665   36.7787   -6.0941 C   0  0  0  0  0  0  0  0  0  0  0  0
   25.4667   35.5955   -4.8617 C   0  0  0  0  0  0  0  0  0  0  0  0
   21.5621   36.7355  -12.6603 C   0  0  0  0  0  0  0  0  0  0  0  0
   24.7035   35.7164   -6.0354 C   0  0  0  0  0  0  0  0  0  0  0  0
   20.6744   37.3274  -11.7729 C   0  0  0  0  0  0  0  0  0  0  0  0
   24.3381   37.4806   -3.8255 C   0  0  0  0  0  0  0  0  0  0  0  0
   23.6052   37.6447   -4.9965 C   0  0  0  0  0  0  0  0  0  0  0  0
   25.2877   36.4516   -3.7671 C   0  0  0  0  0  0  0  0  0  0  0  0
   22.8099   35.7450  -10.9742 C   0  0  0  0  0  0  0  0  0  0  0  0
   23.0652   39.1754   -3.4650 C   0  0  0  0  0  0  0  0  0  0  0  0
   18.7981   40.0148  -13.7812 C   0  0  0  0  0  0  0  0  0  0  0  0
   20.8137   40.3667  -12.3045 C   0  0  0  0  0  0  0  0  0  0  0  0
   19.2898   41.1886  -14.6483 C   0  0  0  0  0  0  0  0  0  0  0  0
   21.2115   41.5432  -13.2205 C   0  0  0  0  0  0  0  0  0  0  0  0
   22.3875   40.3216   -2.8043 C   0  0  0  0  0  0  0  0  0  0  0  0
   20.8217   38.6732   -6.2425 C   0  0  0  0  0  0  0  0  0  0  0  0
   22.8642   40.0293   -6.8973 C   0  0  0  0  0  0  0  0  0  0  0  0
   19.5427   38.1780  -12.2530 C   0  0  0  0  0  0  0  0  0  0  0  0
   22.0179   39.4842   -5.7440 C   0  0  0  0  0  0  0  0  0  0  0  0
   22.6112   35.9778  -12.2890 N   0  0  0  0  0  0  0  0  0  0  0  0
   25.1735   33.3951   -9.5369 N   0  0  0  0  0  0  0  0  0  0  0  0
   23.9803   38.4212   -2.8945 N   0  0  0  0  0  0  0  0  0  0  0  0
   24.2908   35.2410   -8.3577 N   0  0  0  0  0  0  0  0  0  0  0  0
   22.8345   38.7687   -4.7666 N   0  3  0  0  0  0  0  0  0  0  0  0
   19.9794   39.3563  -13.0867 N   0  3  0  0  0  0  0  0  0  0  0  0
   23.8745   34.9241  -10.6775 N   0  0  0  0  0  0  0  0  0  0  0  0
   26.0504   36.2759   -2.6784 F   0  0  0  0  0  0  0  0  0  0  0  0
   26.0967   33.0834   -6.0729 F   0  0  0  0  0  0  0  0  0  0  0  0
   18.3111   43.2816  -13.5425 H   0  0  0  0  0  0  0  0  0  0  0  0
   18.9114   42.4195  -12.1353 H   0  0  0  0  0  0  0  0  0  0  0  0
   19.2132   44.8485  -11.9187 H   0  0  0  0  0  0  0  0  0  0  0  0
   20.1524   44.9144  -13.4180 H   0  0  0  0  0  0  0  0  0  0  0  0
   20.8079   44.0999  -11.9818 H   0  0  0  0  0  0  0  0  0  0  0  0
   26.2231   32.0028   -8.4299 H   0  0  0  0  0  0  0  0  0  0  0  0
   20.2003   37.4541   -9.6564 H   0  0  0  0  0  0  0  0  0  0  0  0
   22.0760   36.0485   -8.9697 H   0  0  0  0  0  0  0  0  0  0  0  0
   23.1803   36.9283   -6.9935 H   0  0  0  0  0  0  0  0  0  0  0  0
   26.2403   34.8408   -4.7537 H   0  0  0  0  0  0  0  0  0  0  0  0
   21.4692   36.8485  -13.7372 H   0  0  0  0  0  0  0  0  0  0  0  0
   18.3255   39.2505  -14.4065 H   0  0  0  0  0  0  0  0  0  0  0  0
   18.0969   40.3392  -13.0050 H   0  0  0  0  0  0  0  0  0  0  0  0
   20.2171   40.6945  -11.4470 H   0  0  0  0  0  0  0  0  0  0  0  0
   21.7115   39.8520  -11.9486 H   0  0  0  0  0  0  0  0  0  0  0  0
   19.9157   40.7886  -15.4575 H   0  0  0  0  0  0  0  0  0  0  0  0
   18.4367   41.6623  -15.1481 H   0  0  0  0  0  0  0  0  0  0  0  0
   21.8004   42.2691  -12.6505 H   0  0  0  0  0  0  0  0  0  0  0  0
   21.8988   41.1626  -13.9886 H   0  0  0  0  0  0  0  0  0  0  0  0
   22.7685   40.4557   -1.7869 H   0  0  0  0  0  0  0  0  0  0  0  0
   21.3093   40.1457   -2.7399 H   0  0  0  0  0  0  0  0  0  0  0  0
   22.5664   41.2522   -3.3511 H   0  0  0  0  0  0  0  0  0  0  0  0
   20.2208   39.2673   -6.9402 H   0  0  0  0  0  0  0  0  0  0  0  0
   20.1754   38.3832   -5.4071 H   0  0  0  0  0  0  0  0  0  0  0  0
   21.1189   37.7596   -6.7632 H   0  0  0  0  0  0  0  0  0  0  0  0
   23.7079   40.6157   -6.5156 H   0  0  0  0  0  0  0  0  0  0  0  0
   22.2656   40.6826   -7.5405 H   0  0  0  0  0  0  0  0  0  0  0  0
   23.2723   39.2321   -7.5255 H   0  0  0  0  0  0  0  0  0  0  0  0
   18.9608   38.5830  -11.4158 H   0  0  0  0  0  0  0  0  0  0  0  0
   18.8714   37.5690  -12.8694 H   0  0  0  0  0  0  0  0  0  0  0  0
   21.6011   40.3576   -5.2307 H   0  0  0  0  0  0  0  0  0  0  0  0
   24.2991   34.4807  -11.4754 H   0  0  0  0  0  0  0  0  0  0  0  0
   20.5880   39.0111  -13.8378 H   0  0  0  0  0  0  0  0  0  0  0  0
  1  3  1  0  0  0  0
  1  7  1  0  0  0  0
  1 38  1  0  0  0  0
  1 39  1  0  0  0  0
  2 30  2  0  0  0  0
  2 32  1  0  0  0  0
  2 35  1  0  0  0  0
  3 40  1  0  0  0  0
  3 41  1  0  0  0  0
  3 42  1  0  0  0  0
  4  5  1  0  0  0  0
  4 13  1  0  0  0  0
  4 32  2  0  0  0  0
  5  6  2  0  0  0  0
  5 37  1  0  0  0  0
  6 30  1  0  0  0  0
  6 43  1  0  0  0  0
  7 22  1  0  0  0  0
  7 23  1  0  0  0  0
  8  9  2  0  0  0  0
  8 14  1  0  0  0  0
  8 44  1  0  0  0  0
  9 18  1  0  0  0  0
  9 45  1  0  0  0  0
 10 13  2  0  0  0  0
 10 16  1  0  0  0  0
 10 46  1  0  0  0  0
 11 13  1  0  0  0  0
 11 17  2  0  0  0  0
 11 47  1  0  0  0  0
 12 14  2  0  0  0  0
 12 29  1  0  0  0  0
 12 48  1  0  0  0  0
 14 27  1  0  0  0  0
 15 16  2  0  0  0  0
 15 17  1  0  0  0  0
 15 31  1  0  0  0  0
 16 33  1  0  0  0  0
 17 36  1  0  0  0  0
 18 29  2  0  0  0  0
 18 35  1  0  0  0  0
 19 24  1  0  0  0  0
 19 31  1  0  0  0  0
 19 33  2  0  0  0  0
 20 22  1  0  0  0  0
 20 34  1  0  0  0  0
 20 49  1  0  0  0  0
 20 50  1  0  0  0  0
 21 23  1  0  0  0  0
 21 34  1  0  0  0  0
 21 51  1  0  0  0  0
 21 52  1  0  0  0  0
 22 53  1  0  0  0  0
 22 54  1  0  0  0  0
 23 55  1  0  0  0  0
 23 56  1  0  0  0  0
 24 57  1  0  0  0  0
 24 58  1  0  0  0  0
 24 59  1  0  0  0  0
 25 28  1  0  0  0  0
 25 60  1  0  0  0  0
 25 61  1  0  0  0  0
 25 62  1  0  0  0  0
 26 28  1  0  0  0  0
 26 63  1  0  0  0  0
 26 64  1  0  0  0  0
 26 65  1  0  0  0  0
 27 34  1  0  0  0  0
 27 66  1  0  0  0  0
 27 67  1  0  0  0  0
 28 33  1  0  0  0  0
 28 68  1  0  0  0  0
 34 70  1  0  0  0  0
 35 69  1  0  0  0  0
M  CHG  2  33   1  34   1
M  END
$$$$
