6ZX
 OpenBabel04161910173D

 21 21  0  0  0  0  0  0  0  0999 V2000
   -3.1130    7.1812   14.6671 C   0  0  0  0  0  0  0  0  0  0  0  0
   -2.0105    5.6137   13.1942 C   0  0  0  0  0  0  0  0  0  0  0  0
   -2.2148    8.1770   14.2803 C   0  0  0  0  0  0  0  0  0  0  0  0
   -1.1086    6.6074   12.8069 C   0  0  0  0  0  0  0  0  0  0  0  0
   -3.0188    5.8873   14.1297 C   0  0  0  0  0  0  0  0  0  0  0  0
   -1.2164    7.8850   13.3553 C   0  0  0  0  0  0  0  0  0  0  0  0
   -3.4404    3.6849   15.0479 C   0  0  0  0  0  0  0  0  0  0  0  0
   -3.9535    4.8313   14.5633 C   0  0  0  0  0  0  0  0  0  0  0  0
   -4.2147    2.4971   15.6156 C   0  0  0  0  0  0  0  0  0  0  0  0
   -5.4238    5.1432   14.5307 C   0  0  0  0  0  0  0  0  0  0  0  0
   -5.3195    2.2300   15.0712 O   0  0  0  0  0  0  0  0  0  0  0  0
   -3.6112    1.9027   16.5548 O   0  0  0  0  0  0  0  0  0  0  0  0
   -0.1013    9.1123   12.8865 Cl  0  0  0  0  0  0  0  0  0  0  0  0
   -3.8767    7.4042   15.4073 H   0  0  0  0  0  0  0  0  0  0  0  0
   -1.9249    4.6159   12.7687 H   0  0  0  0  0  0  0  0  0  0  0  0
   -2.2974    9.1680   14.7149 H   0  0  0  0  0  0  0  0  0  0  0  0
   -0.3294    6.3738   12.0891 H   0  0  0  0  0  0  0  0  0  0  0  0
   -2.3620    3.5466   15.1192 H   0  0  0  0  0  0  0  0  0  0  0  0
   -5.6260    6.1275   14.0927 H   0  0  0  0  0  0  0  0  0  0  0  0
   -5.8401    5.1463   15.5433 H   0  0  0  0  0  0  0  0  0  0  0  0
   -5.9682    4.4201   13.9167 H   0  0  0  0  0  0  0  0  0  0  0  0
  1  3  2  0  0  0  0
  1  5  1  0  0  0  0
  1 14  1  0  0  0  0
  2  4  1  0  0  0  0
  2  5  2  0  0  0  0
  2 15  1  0  0  0  0
  3  6  1  0  0  0  0
  3 16  1  0  0  0  0
  4  6  2  0  0  0  0
  4 17  1  0  0  0  0
  5  8  1  0  0  0  0
  6 13  1  0  0  0  0
  7  8  2  0  0  0  0
  7  9  1  0  0  0  0
  7 18  1  0  0  0  0
  8 10  1  0  0  0  0
  9 11  2  0  0  0  0
  9 12  1  0  0  0  0
 10 19  1  0  0  0  0
 10 20  1  0  0  0  0
 10 21  1  0  0  0  0
M  END
$$$$
