72D
 OpenBabel04161911473D

 27 28  0  0  0  0  0  0  0  0999 V2000
    0.3010    2.4977   84.9573 C   0  0  0  0  0  0  0  0  0  0  0  0
   -0.3757    1.4445   85.5759 C   0  0  0  0  0  0  0  0  0  0  0  0
   -1.7686    1.4578   85.6466 C   0  0  0  0  0  0  0  0  0  0  0  0
   -2.5691    0.1581   86.5562 S   0  0  0  0  0  0  0  0  0  0  0  0
   -2.0626    0.1948   87.9036 O   0  0  0  0  0  0  0  0  0  0  0  0
   -3.9875    0.2025   86.2657 O   0  0  0  0  0  0  0  0  0  0  0  0
   -1.9789   -1.2420   85.8752 N   0  0  0  0  0  0  0  0  0  0  0  0
   -2.4950    2.5210   85.0929 C   0  0  0  0  0  0  0  0  0  0  0  0
   -1.7980    3.5866   84.4851 C   0  0  0  0  0  0  0  0  0  0  0  0
   -0.3964    3.5982   84.4089 C   0  0  0  0  0  0  0  0  0  0  0  0
    0.3653    4.7111   83.8278 C   0  0  0  0  0  0  0  0  0  0  0  0
    1.1616    4.5295   82.6836 C   0  0  0  0  0  0  0  0  0  0  0  0
    1.9477    5.5688   82.1716 C   0  0  0  0  0  0  0  0  0  0  0  0
    1.9558    6.8109   82.7986 C   0  0  0  0  0  0  0  0  0  0  0  0
    1.1793    7.0135   83.9374 C   0  0  0  0  0  0  0  0  0  0  0  0
    0.3890    5.9737   84.4455 C   0  0  0  0  0  0  0  0  0  0  0  0
    1.3818    2.4869   84.9368 H   0  0  0  0  0  0  0  0  0  0  0  0
    0.1958    0.6430   86.0386 H   0  0  0  0  0  0  0  0  0  0  0  0
   -2.4943   -2.0846   86.1207 H   0  0  0  0  0  0  0  0  0  0  0  0
   -1.4683   -1.2113   84.9977 H   0  0  0  0  0  0  0  0  0  0  0  0
   -3.5765    2.5517   85.1624 H   0  0  0  0  0  0  0  0  0  0  0  0
   -2.3700    4.4211   84.0777 H   0  0  0  0  0  0  0  0  0  0  0  0
    1.1861    3.5619   82.1859 H   0  0  0  0  0  0  0  0  0  0  0  0
    2.5624    5.4031   81.2907 H   0  0  0  0  0  0  0  0  0  0  0  0
    2.5728    7.6174   82.4081 H   0  0  0  0  0  0  0  0  0  0  0  0
    1.2003    7.9775   84.4415 H   0  0  0  0  0  0  0  0  0  0  0  0
   -0.1835    6.1487   85.3545 H   0  0  0  0  0  0  0  0  0  0  0  0
  1  2  2  0  0  0  0
  1 10  1  0  0  0  0
  1 17  1  0  0  0  0
  2  3  1  0  0  0  0
  2 18  1  0  0  0  0
  3  4  1  0  0  0  0
  3  8  2  0  0  0  0
  4  5  2  0  0  0  0
  4  6  2  0  0  0  0
  4  7  1  0  0  0  0
  7 19  1  0  0  0  0
  7 20  1  0  0  0  0
  8  9  1  0  0  0  0
  8 21  1  0  0  0  0
  9 10  2  0  0  0  0
  9 22  1  0  0  0  0
 10 11  1  0  0  0  0
 11 12  2  0  0  0  0
 11 16  1  0  0  0  0
 12 13  1  0  0  0  0
 12 23  1  0  0  0  0
 13 14  2  0  0  0  0
 13 24  1  0  0  0  0
 14 15  1  0  0  0  0
 14 25  1  0  0  0  0
 15 16  2  0  0  0  0
 15 26  1  0  0  0  0
 16 27  1  0  0  0  0
M  END
$$$$
