72D
 OpenBabel04161911483D

 27 28  0  0  0  0  0  0  0  0999 V2000
   17.9510    5.6698   15.5548 C   0  0  0  0  0  0  0  0  0  0  0  0
   17.3898    4.5071   16.0917 C   0  0  0  0  0  0  0  0  0  0  0  0
   16.0093    4.4174   16.2507 C   0  0  0  0  0  0  0  0  0  0  0  0
   15.3279    2.9725   17.0314 S   0  0  0  0  0  0  0  0  0  0  0  0
   15.8621    2.9163   18.3717 O   0  0  0  0  0  0  0  0  0  0  0  0
   13.9124    2.9361   16.7714 O   0  0  0  0  0  0  0  0  0  0  0  0
   15.9804    1.6822   16.2045 N   0  0  0  0  0  0  0  0  0  0  0  0
   15.1826    5.4700   15.8594 C   0  0  0  0  0  0  0  0  0  0  0  0
   15.7575    6.6257   15.3154 C   0  0  0  0  0  0  0  0  0  0  0  0
   17.1529    6.7598   15.1623 C   0  0  0  0  0  0  0  0  0  0  0  0
   17.7588    8.0112   14.6480 C   0  0  0  0  0  0  0  0  0  0  0  0
   18.9432    8.0102   13.8861 C   0  0  0  0  0  0  0  0  0  0  0  0
   19.5063    9.2008   13.4135 C   0  0  0  0  0  0  0  0  0  0  0  0
   18.8934   10.4192   13.6892 C   0  0  0  0  0  0  0  0  0  0  0  0
   17.7266   10.4503   14.4441 C   0  0  0  0  0  0  0  0  0  0  0  0
   17.1734    9.2610   14.9227 C   0  0  0  0  0  0  0  0  0  0  0  0
   19.0346    5.7316   15.4825 H   0  0  0  0  0  0  0  0  0  0  0  0
   18.0407    3.7013   16.4232 H   0  0  0  0  0  0  0  0  0  0  0  0
   15.7078    0.7598   16.5338 H   0  0  0  0  0  0  0  0  0  0  0  0
   16.6591    1.7990   15.4631 H   0  0  0  0  0  0  0  0  0  0  0  0
   14.1052    5.4257   15.9973 H   0  0  0  0  0  0  0  0  0  0  0  0
   15.0932    7.4373   15.0204 H   0  0  0  0  0  0  0  0  0  0  0  0
   19.4455    7.0765   13.6422 H   0  0  0  0  0  0  0  0  0  0  0  0
   20.4232    9.1770   12.8294 H   0  0  0  0  0  0  0  0  0  0  0  0
   19.3268   11.3439   13.3190 H   0  0  0  0  0  0  0  0  0  0  0  0
   17.2427   11.3964   14.6708 H   0  0  0  0  0  0  0  0  0  0  0  0
   16.2764    9.3280   15.5342 H   0  0  0  0  0  0  0  0  0  0  0  0
  1  2  2  0  0  0  0
  1 10  1  0  0  0  0
  1 17  1  0  0  0  0
  2  3  1  0  0  0  0
  2 18  1  0  0  0  0
  3  4  1  0  0  0  0
  3  8  2  0  0  0  0
  4  5  2  0  0  0  0
  4  6  2  0  0  0  0
  4  7  1  0  0  0  0
  7 19  1  0  0  0  0
  7 20  1  0  0  0  0
  8  9  1  0  0  0  0
  8 21  1  0  0  0  0
  9 10  2  0  0  0  0
  9 22  1  0  0  0  0
 10 11  1  0  0  0  0
 11 12  2  0  0  0  0
 11 16  1  0  0  0  0
 12 13  1  0  0  0  0
 12 23  1  0  0  0  0
 13 14  2  0  0  0  0
 13 24  1  0  0  0  0
 14 15  1  0  0  0  0
 14 25  1  0  0  0  0
 15 16  2  0  0  0  0
 15 26  1  0  0  0  0
 16 27  1  0  0  0  0
M  END
$$$$
