72G
 OpenBabel04161911483D

 29 30  0  0  0  0  0  0  0  0999 V2000
   21.5153    8.3464   12.5140 O   0  0  0  0  0  0  0  0  0  0  0  0
   20.7494    7.3926   12.5784 C   0  0  0  0  0  0  0  0  0  0  0  0
   19.4603    7.4687   13.2941 C   0  0  0  0  0  0  0  0  0  0  0  0
   18.8603    6.2897   13.7485 C   0  0  0  0  0  0  0  0  0  0  0  0
   18.8427    8.6956   13.5133 C   0  0  0  0  0  0  0  0  0  0  0  0
   17.6151    8.7373   14.1706 C   0  0  0  0  0  0  0  0  0  0  0  0
   17.0212    7.5597   14.6341 C   0  0  0  0  0  0  0  0  0  0  0  0
   17.6258    6.3070   14.4393 C   0  0  0  0  0  0  0  0  0  0  0  0
   17.0215    5.0638   14.9838 C   0  0  0  0  0  0  0  0  0  0  0  0
   17.8451    3.9752   15.3115 C   0  0  0  0  0  0  0  0  0  0  0  0
   17.3394    2.8010   15.8695 C   0  0  0  0  0  0  0  0  0  0  0  0
   15.9712    2.6853   16.1045 C   0  0  0  0  0  0  0  0  0  0  0  0
   15.3445    1.2424   16.9221 S   0  0  0  0  0  0  0  0  0  0  0  0
   15.9168    1.2164   18.2567 O   0  0  0  0  0  0  0  0  0  0  0  0
   13.9159    1.1703   16.6997 O   0  0  0  0  0  0  0  0  0  0  0  0
   16.0169   -0.0325   16.0920 N   0  0  0  0  0  0  0  0  0  0  0  0
   15.1143    3.7391   15.7803 C   0  0  0  0  0  0  0  0  0  0  0  0
   15.6392    4.9215   15.2359 C   0  0  0  0  0  0  0  0  0  0  0  0
   20.9949    6.4271   12.1016 H   0  0  0  0  0  0  0  0  0  0  0  0
   19.3888    5.3555   13.5797 H   0  0  0  0  0  0  0  0  0  0  0  0
   19.3083    9.6159   13.1688 H   0  0  0  0  0  0  0  0  0  0  0  0
   17.1176    9.6886   14.3372 H   0  0  0  0  0  0  0  0  0  0  0  0
   16.0868    7.6429   15.1853 H   0  0  0  0  0  0  0  0  0  0  0  0
   18.9221    4.0407   15.1800 H   0  0  0  0  0  0  0  0  0  0  0  0
   18.0281    2.0125   16.1521 H   0  0  0  0  0  0  0  0  0  0  0  0
   15.6867   -0.9580   16.3534 H   0  0  0  0  0  0  0  0  0  0  0  0
   16.5732    0.1086   15.2570 H   0  0  0  0  0  0  0  0  0  0  0  0
   14.0463    3.6676   15.9830 H   0  0  0  0  0  0  0  0  0  0  0  0
   14.9395    5.7303   15.0340 H   0  0  0  0  0  0  0  0  0  0  0  0
  1  2  2  0  0  0  0
  2  3  1  0  0  0  0
  2 19  1  0  0  0  0
  3  4  2  0  0  0  0
  3  5  1  0  0  0  0
  4  8  1  0  0  0  0
  4 20  1  0  0  0  0
  5  6  2  0  0  0  0
  5 21  1  0  0  0  0
  6  7  1  0  0  0  0
  6 22  1  0  0  0  0
  7  8  2  0  0  0  0
  7 23  1  0  0  0  0
  8  9  1  0  0  0  0
  9 10  2  0  0  0  0
  9 18  1  0  0  0  0
 10 11  1  0  0  0  0
 10 24  1  0  0  0  0
 11 12  2  0  0  0  0
 11 25  1  0  0  0  0
 12 13  1  0  0  0  0
 12 17  1  0  0  0  0
 13 14  2  0  0  0  0
 13 15  2  0  0  0  0
 13 16  1  0  0  0  0
 16 26  1  0  0  0  0
 16 27  1  0  0  0  0
 17 18  2  0  0  0  0
 17 28  1  0  0  0  0
 18 29  1  0  0  0  0
M  END
$$$$
