73K
 OpenBabel04161910283D

 41 44  0  0  0  0  0  0  0  0999 V2000
  -31.1010   75.1328    5.6545 C   0  0  0  0  0  0  0  0  0  0  0  0
  -31.7451   75.4907    6.7865 C   0  0  0  0  0  0  0  0  0  0  0  0
  -32.1383   74.4245    7.6229 C   0  0  0  0  0  0  0  0  0  0  0  0
  -32.3011   72.3328    8.2196 C   0  0  0  0  0  0  0  0  0  0  0  0
  -28.5022   71.0352    5.3895 C   0  0  0  0  0  0  0  0  0  0  0  0
  -28.0892   70.1906    6.3899 C   0  0  0  0  0  0  0  0  0  0  0  0
  -26.7133   70.4271    6.5498 C   0  0  0  0  0  0  0  0  0  0  0  0
  -26.3743   71.3998    5.6457 C   0  0  0  0  0  0  0  0  0  0  0  0
  -33.3952   77.2726    7.3517 C   0  0  0  0  0  0  0  0  0  0  0  0
  -33.7261   78.6092    7.5894 C   0  0  0  0  0  0  0  0  0  0  0  0
  -32.7305   79.5851    7.5069 C   0  0  0  0  0  0  0  0  0  0  0  0
  -31.4081   79.2344    7.2191 C   0  0  0  0  0  0  0  0  0  0  0  0
  -31.0781   77.8943    7.0121 C   0  0  0  0  0  0  0  0  0  0  0  0
  -34.2031   81.5829    6.2796 C   0  0  0  0  0  0  0  0  0  0  0  0
  -31.8061   73.1523    7.2444 N   0  3  0  0  0  0  0  0  0  0  0  0
  -31.1107   72.8694    6.0873 C   0  0  0  0  0  0  0  0  0  0  0  0
  -30.7502   73.8658    5.2956 N   0  0  0  0  0  0  0  0  0  0  0  0
  -32.0707   76.9068    7.0439 C   0  0  0  0  0  0  0  0  0  0  0  0
  -30.8354   71.5699    5.7739 N   0  0  0  0  0  0  0  0  0  0  0  0
  -29.8297   71.2487    4.7901 C   0  0  0  0  0  0  0  0  0  0  0  0
  -32.8124   74.3749    8.7591 N   0  0  0  0  0  0  0  0  0  0  0  0
  -32.9160   73.0571    9.1337 N   0  0  0  0  0  0  0  0  0  0  0  0
  -27.4622   71.7821    4.9359 O   0  0  0  0  0  0  0  0  0  0  0  0
  -33.1670   81.3014    7.7022 S   0  0  0  0  0  0  0  0  0  0  0  0
  -33.9836   81.4241    8.8936 O   0  0  0  0  0  0  0  0  0  0  0  0
  -31.9525   82.0802    7.5533 O   0  0  0  0  0  0  0  0  0  0  0  0
  -30.7954   75.8969    4.9322 H   0  0  0  0  0  0  0  0  0  0  0  0
  -32.1995   71.2614    8.2368 H   0  0  0  0  0  0  0  0  0  0  0  0
  -28.7283   69.5048    6.9336 H   0  0  0  0  0  0  0  0  0  0  0  0
  -26.0133   69.9617    7.2297 H   0  0  0  0  0  0  0  0  0  0  0  0
  -25.4460   71.8871    5.4062 H   0  0  0  0  0  0  0  0  0  0  0  0
  -34.1767   76.5155    7.3927 H   0  0  0  0  0  0  0  0  0  0  0  0
  -34.7552   78.8755    7.8224 H   0  0  0  0  0  0  0  0  0  0  0  0
  -30.6338   79.9949    7.1416 H   0  0  0  0  0  0  0  0  0  0  0  0
  -30.0395   77.6256    6.8156 H   0  0  0  0  0  0  0  0  0  0  0  0
  -34.5496   82.6176    6.2858 H   0  0  0  0  0  0  0  0  0  0  0  0
  -35.0653   80.9148    6.3391 H   0  0  0  0  0  0  0  0  0  0  0  0
  -33.6326   81.3791    5.3717 H   0  0  0  0  0  0  0  0  0  0  0  0
  -31.1652   70.8019    6.3543 H   0  0  0  0  0  0  0  0  0  0  0  0
  -30.1346   70.3298    4.2849 H   0  0  0  0  0  0  0  0  0  0  0  0
  -29.7713   72.0306    4.0287 H   0  0  0  0  0  0  0  0  0  0  0  0
  1  2  2  0  0  0  0
  1 17  1  0  0  0  0
  1 27  1  0  0  0  0
  2  3  1  0  0  0  0
  2 18  1  0  0  0  0
  3 15  2  0  0  0  0
  3 21  1  0  0  0  0
  4 15  1  0  0  0  0
  4 22  2  0  0  0  0
  4 28  1  0  0  0  0
  5  6  2  0  0  0  0
  5 20  1  0  0  0  0
  5 23  1  0  0  0  0
  6  7  1  0  0  0  0
  6 29  1  0  0  0  0
  7  8  2  0  0  0  0
  7 30  1  0  0  0  0
  8 23  1  0  0  0  0
  8 31  1  0  0  0  0
  9 10  2  0  0  0  0
  9 18  1  0  0  0  0
  9 32  1  0  0  0  0
 10 11  1  0  0  0  0
 10 33  1  0  0  0  0
 11 12  2  0  0  0  0
 11 24  1  0  0  0  0
 12 13  1  0  0  0  0
 12 34  1  0  0  0  0
 13 18  2  0  0  0  0
 13 35  1  0  0  0  0
 14 24  1  0  0  0  0
 14 36  1  0  0  0  0
 14 37  1  0  0  0  0
 14 38  1  0  0  0  0
 15 16  1  0  0  0  0
 16 17  2  0  0  0  0
 16 19  1  0  0  0  0
 19 20  1  0  0  0  0
 19 39  1  0  0  0  0
 20 40  1  0  0  0  0
 20 41  1  0  0  0  0
 21 22  1  0  0  0  0
 24 25  2  0  0  0  0
 24 26  2  0  0  0  0
M  CHG  1  15   1
M  END
$$$$
