77X
 OpenBabel04161911513D

 36 38  0  0  0  0  0  0  0  0999 V2000
    1.6693   14.6422   22.6097 C   0  0  0  0  0  0  0  0  0  0  0  0
    0.3222   14.7300   23.2962 C   0  0  0  0  0  0  0  0  0  0  0  0
    0.4041   14.5337   24.8077 C   0  0  0  0  0  0  0  0  0  0  0  0
    1.4577   14.7285   25.4161 O   0  0  0  0  0  0  0  0  0  0  0  0
   -0.7710   14.1810   25.4592 N   0  0  0  0  0  0  0  0  0  0  0  0
   -0.7647   13.9712   26.9230 C   0  0  0  0  0  0  0  0  0  0  0  0
   -1.0454   12.5007   27.2990 C   0  0  0  0  0  0  0  0  0  0  0  0
   -2.0435   13.9092   24.7830 C   0  0  0  0  0  0  0  0  0  0  0  0
   -2.5519   12.5954   25.2430 C   0  0  0  0  0  0  0  0  0  0  0  0
   -2.1047   11.9464   26.4141 C   0  0  0  0  0  0  0  0  0  0  0  0
   -2.7084   10.7725   26.6092 N   0  0  0  0  0  0  0  0  0  0  0  0
   -3.5303   10.6716   25.5489 N   0  3  0  0  0  0  0  0  0  0  0  0
   -3.4779   11.7346   24.6804 C   0  0  0  0  0  0  0  0  0  0  0  0
   -4.2936   11.8353   23.4726 C   0  0  0  0  0  0  0  0  0  0  0  0
   -4.5463   10.7155   22.6727 C   0  0  0  0  0  0  0  0  0  0  0  0
   -5.3207   10.8313   21.5184 C   0  0  0  0  0  0  0  0  0  0  0  0
   -5.8415   12.0745   21.1376 C   0  0  0  0  0  0  0  0  0  0  0  0
   -5.5818   13.1955   21.9167 C   0  0  0  0  0  0  0  0  0  0  0  0
   -4.8116   13.0766   23.0768 C   0  0  0  0  0  0  0  0  0  0  0  0
    1.5367   14.7655   21.5296 H   0  0  0  0  0  0  0  0  0  0  0  0
    2.1173   13.6586   22.7843 H   0  0  0  0  0  0  0  0  0  0  0  0
    2.3610   15.4073   22.9677 H   0  0  0  0  0  0  0  0  0  0  0  0
   -0.2838   13.9477   22.8382 H   0  0  0  0  0  0  0  0  0  0  0  0
   -0.1411   15.7046   23.1079 H   0  0  0  0  0  0  0  0  0  0  0  0
   -1.5469   14.6183   27.3391 H   0  0  0  0  0  0  0  0  0  0  0  0
    0.1837   14.2869   27.3687 H   0  0  0  0  0  0  0  0  0  0  0  0
   -1.3434   12.4346   28.3521 H   0  0  0  0  0  0  0  0  0  0  0  0
   -0.1310   11.9107   27.1690 H   0  0  0  0  0  0  0  0  0  0  0  0
   -1.9606   13.9045   23.6991 H   0  0  0  0  0  0  0  0  0  0  0  0
   -2.7372   14.7102   25.0526 H   0  0  0  0  0  0  0  0  0  0  0  0
   -4.1151    9.8495   25.4880 H   0  0  0  0  0  0  0  0  0  0  0  0
   -4.1375    9.7430   22.9268 H   0  0  0  0  0  0  0  0  0  0  0  0
   -5.5211    9.9558   20.9033 H   0  0  0  0  0  0  0  0  0  0  0  0
   -6.4426   12.1598   20.2368 H   0  0  0  0  0  0  0  0  0  0  0  0
   -5.9833   14.1632   21.6316 H   0  0  0  0  0  0  0  0  0  0  0  0
   -4.6468   13.9671   23.6750 H   0  0  0  0  0  0  0  0  0  0  0  0
  1  2  1  0  0  0  0
  1 20  1  0  0  0  0
  1 21  1  0  0  0  0
  1 22  1  0  0  0  0
  2  3  1  0  0  0  0
  2 23  1  0  0  0  0
  2 24  1  0  0  0  0
  3  4  2  0  0  0  0
  3  5  1  0  0  0  0
  5  6  1  0  0  0  0
  5  8  1  0  0  0  0
  6  7  1  0  0  0  0
  6 25  1  0  0  0  0
  6 26  1  0  0  0  0
  7 10  1  0  0  0  0
  7 27  1  0  0  0  0
  7 28  1  0  0  0  0
  8  9  1  0  0  0  0
  8 29  1  0  0  0  0
  8 30  1  0  0  0  0
  9 10  2  0  0  0  0
  9 13  1  0  0  0  0
 10 11  1  0  0  0  0
 11 12  1  0  0  0  0
 12 13  2  0  0  0  0
 12 31  1  0  0  0  0
 13 14  1  0  0  0  0
 14 15  2  0  0  0  0
 14 19  1  0  0  0  0
 15 16  1  0  0  0  0
 15 32  1  0  0  0  0
 16 17  2  0  0  0  0
 16 33  1  0  0  0  0
 17 18  1  0  0  0  0
 17 34  1  0  0  0  0
 18 19  2  0  0  0  0
 18 35  1  0  0  0  0
 19 36  1  0  0  0  0
M  CHG  1  12   1
M  END
$$$$
