78J
 OpenBabel04161909333D

 58 61  0  0  1  0  0  0  0  0999 V2000
  -23.5946   44.8086    9.9622 C   0  0  0  0  0  0  0  0  0  0  0  0
  -24.9154   44.8317   10.6474 C   0  0  0  0  0  0  0  0  0  0  0  0
  -25.8459   45.7589   10.3510 C   0  0  0  0  0  0  0  0  0  0  0  0
  -27.1241   45.7859   11.0373 C   0  0  0  0  0  0  0  0  0  0  0  0
  -28.0918   46.7387   10.7439 C   0  0  0  0  0  0  0  0  0  0  0  0
  -29.2867   46.6606   11.4488 C   0  0  0  0  0  0  0  0  0  0  0  0
  -29.5710   45.7351   12.4048 N   0  0  0  0  0  0  0  0  0  0  0  0
  -28.6244   44.8231   12.7015 C   0  0  0  0  0  0  0  0  0  0  0  0
  -28.9008   43.8156   13.6264 N   0  0  0  0  0  0  0  0  0  0  0  0
  -30.2576   43.5644   14.0999 C   0  0  2  0  0  0  0  0  0  0  0  0
  -30.1952   43.0559   15.5499 C   0  0  0  0  0  0  0  0  0  0  0  0
  -31.5760   42.6798   16.0517 C   0  0  0  0  0  0  0  0  0  0  0  0
  -32.1297   41.6147   15.1697 N   0  3  0  0  0  0  0  0  0  0  0  0
  -32.2756   42.0870   13.7643 C   0  0  0  0  0  0  0  0  0  0  0  0
  -30.9191   42.4955   13.1942 C   0  0  1  0  0  0  0  0  0  0  0  0
  -31.1230   43.0518   11.9010 O   0  0  0  0  0  0  0  0  0  0  0  0
  -31.2019   42.0874   10.8613 C   0  0  0  0  0  0  0  0  0  0  0  0
  -31.2212   42.8148    9.5195 C   0  0  0  0  0  0  0  0  0  0  0  0
  -29.8919   43.5369    9.2844 C   0  0  0  0  0  0  0  0  0  0  0  0
  -29.8388   44.2089    7.9208 C   0  0  0  0  0  0  0  0  0  0  0  0
  -30.1045   43.2097    6.8048 C   0  0  0  0  0  0  0  0  0  0  0  0
  -31.4224   42.4785    7.0234 C   0  0  0  0  0  0  0  0  0  0  0  0
  -31.4753   41.8151    8.3937 C   0  0  0  0  0  0  0  0  0  0  0  0
  -27.3928   44.8238   12.0173 C   0  0  0  0  0  0  0  0  0  0  0  0
  -26.4098   43.8599   12.2907 N   0  3  0  0  0  0  0  0  0  0  0  0
  -25.1846   43.8017   11.6884 C   0  0  0  0  0  0  0  0  0  0  0  0
  -24.3753   42.9467   11.9928 O   0  0  0  0  0  0  0  0  0  0  0  0
  -23.5328   45.6162    9.2252 H   0  0  0  0  0  0  0  0  0  0  0  0
  -23.4549   43.8617    9.4355 H   0  0  0  0  0  0  0  0  0  0  0  0
  -22.7852   44.9521   10.6836 H   0  0  0  0  0  0  0  0  0  0  0  0
  -25.6459   46.5139    9.5851 H   0  0  0  0  0  0  0  0  0  0  0  0
  -27.9488   47.5022    9.9916 H   0  0  0  0  0  0  0  0  0  0  0  0
  -30.0847   47.3705   11.2464 H   0  0  0  0  0  0  0  0  0  0  0  0
  -28.1152   43.4082   14.1084 H   0  0  0  0  0  0  0  0  0  0  0  0
  -30.8649   44.4790   14.0874 H   0  0  0  0  0  0  0  0  0  0  0  0
  -29.7809   43.8309   16.2030 H   0  0  0  0  0  0  0  0  0  0  0  0
  -29.5308   42.1830   15.6194 H   0  0  0  0  0  0  0  0  0  0  0  0
  -32.2668   43.5281   16.0126 H   0  0  0  0  0  0  0  0  0  0  0  0
  -31.5434   42.2745   17.0659 H   0  0  0  0  0  0  0  0  0  0  0  0
  -31.5304   40.7760   15.1979 H   0  0  0  0  0  0  0  0  0  0  0  0
  -32.9813   42.9257   13.7670 H   0  0  0  0  0  0  0  0  0  0  0  0
  -32.7163   41.2669   13.1914 H   0  0  0  0  0  0  0  0  0  0  0  0
  -30.2588   41.6165   13.1446 H   0  0  0  0  0  0  0  0  0  0  0  0
  -32.1219   41.5089   10.9849 H   0  0  0  0  0  0  0  0  0  0  0  0
  -30.3406   41.4114   10.9131 H   0  0  0  0  0  0  0  0  0  0  0  0
  -32.0250   43.5646    9.5366 H   0  0  0  0  0  0  0  0  0  0  0  0
  -29.0657   42.8191    9.3649 H   0  0  0  0  0  0  0  0  0  0  0  0
  -29.7460   44.2909   10.0553 H   0  0  0  0  0  0  0  0  0  0  0  0
  -28.8548   44.6671    7.7774 H   0  0  0  0  0  0  0  0  0  0  0  0
  -30.5874   45.0091    7.8796 H   0  0  0  0  0  0  0  0  0  0  0  0
  -29.2853   42.4812    6.7665 H   0  0  0  0  0  0  0  0  0  0  0  0
  -30.1275   43.7318    5.8428 H   0  0  0  0  0  0  0  0  0  0  0  0
  -31.5506   41.7180    6.2471 H   0  0  0  0  0  0  0  0  0  0  0  0
  -32.2510   43.1908    6.9320 H   0  0  0  0  0  0  0  0  0  0  0  0
  -32.4540   41.3452    8.5342 H   0  0  0  0  0  0  0  0  0  0  0  0
  -30.7174   41.0224    8.4374 H   0  0  0  0  0  0  0  0  0  0  0  0
  -26.5788   43.1495   12.9786 H   0  0  0  0  0  0  0  0  0  0  0  0
  -33.0491   41.3122   15.5232 H   0  0  0  0  0  0  0  0  0  0  0  0
  1  2  1  0  0  0  0
  1 28  1  0  0  0  0
  1 29  1  0  0  0  0
  1 30  1  0  0  0  0
  2  3  2  0  0  0  0
  2 26  1  0  0  0  0
  3  4  1  0  0  0  0
  3 31  1  0  0  0  0
  4  5  2  0  0  0  0
  4 24  1  0  0  0  0
  5  6  1  0  0  0  0
  5 32  1  0  0  0  0
  6  7  2  0  0  0  0
  6 33  1  0  0  0  0
  7  8  1  0  0  0  0
  8  9  1  0  0  0  0
  8 24  2  0  0  0  0
  9 10  1  0  0  0  0
  9 34  1  0  0  0  0
 10 11  1  0  0  0  0
 10 15  1  0  0  0  0
 10 35  1  6  0  0  0
 11 12  1  0  0  0  0
 11 36  1  0  0  0  0
 11 37  1  0  0  0  0
 12 13  1  0  0  0  0
 12 38  1  0  0  0  0
 12 39  1  0  0  0  0
 13 14  1  0  0  0  0
 13 40  1  0  0  0  0
 13 58  1  0  0  0  0
 14 15  1  0  0  0  0
 14 41  1  0  0  0  0
 14 42  1  0  0  0  0
 15 16  1  0  0  0  0
 15 43  1  6  0  0  0
 16 17  1  0  0  0  0
 17 18  1  0  0  0  0
 17 44  1  0  0  0  0
 17 45  1  0  0  0  0
 18 19  1  0  0  0  0
 18 23  1  0  0  0  0
 18 46  1  0  0  0  0
 19 20  1  0  0  0  0
 19 47  1  0  0  0  0
 19 48  1  0  0  0  0
 20 21  1  0  0  0  0
 20 49  1  0  0  0  0
 20 50  1  0  0  0  0
 21 22  1  0  0  0  0
 21 51  1  0  0  0  0
 21 52  1  0  0  0  0
 22 23  1  0  0  0  0
 22 53  1  0  0  0  0
 22 54  1  0  0  0  0
 23 55  1  0  0  0  0
 23 56  1  0  0  0  0
 24 25  1  0  0  0  0
 25 26  1  0  0  0  0
 25 57  1  0  0  0  0
 26 27  2  0  0  0  0
M  CHG  2  13   1  25   1
M  END
$$$$
