79A
 OpenBabel04161911513D

 38 40  0  0  1  0  0  0  0  0999 V2000
   18.4369    1.9641   -8.6372 N   0  0  0  0  0  0  0  0  0  0  0  0
   18.9738    1.1725   -9.2306 C   0  0  0  0  0  0  0  0  0  0  0  0
   19.6723    0.1985   -9.9572 C   0  0  0  0  0  0  0  0  0  0  0  0
   20.9245    0.4828  -10.4486 C   0  0  0  0  0  0  0  0  0  0  0  0
   21.5649   -0.4977  -11.1703 C   0  0  0  0  0  0  0  0  0  0  0  0
   20.9740   -1.7402  -11.4309 C   0  0  0  0  0  0  0  0  0  0  0  0
   19.7145   -1.9987  -10.9032 C   0  0  0  0  0  0  0  0  0  0  0  0
   19.0949   -3.1728  -11.0819 F   0  0  0  0  0  0  0  0  0  0  0  0
   19.0685   -1.0288  -10.1685 C   0  0  0  0  0  0  0  0  0  0  0  0
   22.7732   -0.1478  -11.6645 O   0  0  0  0  0  0  0  0  0  0  0  0
   23.8326   -0.2810  -10.8142 C   0  0  0  0  0  0  0  0  0  0  0  0
   25.0148    0.0974  -11.4013 C   0  0  0  0  0  0  0  0  0  0  0  0
   25.2076    0.6439  -12.7878 C   0  0  0  0  0  0  0  0  0  0  0  0
   26.6840    0.3945  -12.9843 C   0  0  0  0  0  0  0  0  0  0  0  0
   27.2049    1.3107  -13.8399 F   0  0  0  0  0  0  0  0  0  0  0  0
   26.8739   -0.8175  -13.5631 F   0  0  0  0  0  0  0  0  0  0  0  0
   26.1849   -0.0604  -10.7104 C   0  0  0  0  0  0  0  0  0  0  0  0
   27.3221    0.4029  -11.5760 C   0  0  2  0  0  0  0  0  0  0  0  0
   27.6275    1.7306  -11.1762 O   0  0  0  0  0  0  0  0  0  0  0  0
   26.1325   -0.5789   -9.4231 C   0  0  0  0  0  0  0  0  0  0  0  0
   27.5919   -0.8277   -8.5558 S   0  0  0  0  0  0  0  0  0  0  0  0
   27.9308    0.8728   -8.1988 C   0  0  0  0  0  0  0  0  0  0  0  0
   27.2297   -1.5798   -7.3733 O   0  0  0  0  0  0  0  0  0  0  0  0
   28.5203   -1.3857   -9.5109 O   0  0  0  0  0  0  0  0  0  0  0  0
   24.9527   -0.9297   -8.7794 C   0  0  0  0  0  0  0  0  0  0  0  0
   23.7879   -0.7808   -9.4954 C   0  0  0  0  0  0  0  0  0  0  0  0
   21.4021    1.4461  -10.2896 H   0  0  0  0  0  0  0  0  0  0  0  0
   21.4801   -2.4840  -12.0353 H   0  0  0  0  0  0  0  0  0  0  0  0
   18.0837   -1.2112   -9.7603 H   0  0  0  0  0  0  0  0  0  0  0  0
   24.9738    1.7131  -12.8497 H   0  0  0  0  0  0  0  0  0  0  0  0
   24.6158    0.0957  -13.5305 H   0  0  0  0  0  0  0  0  0  0  0  0
   28.1822   -0.2583  -11.5016 H   0  0  0  0  0  0  0  0  0  0  0  0
   28.3548    2.0436  -11.7459 H   0  0  0  0  0  0  0  0  0  0  0  0
   28.8514    0.9046   -7.6474 H   0  0  0  0  0  0  0  0  0  0  0  0
   27.0868    1.2578   -7.6323 H   0  0  0  0  0  0  0  0  0  0  0  0
   28.0197    1.3843   -9.1440 H   0  0  0  0  0  0  0  0  0  0  0  0
   24.9743   -1.3110   -7.7494 H   0  0  0  0  0  0  0  0  0  0  0  0
   22.8261   -1.0447   -9.0589 H   0  0  0  0  0  0  0  0  0  0  0  0
  1  2  3  0  0  0  0
  2  3  1  0  0  0  0
  3  4  2  0  0  0  0
  3  9  1  0  0  0  0
  4  5  1  0  0  0  0
  4 27  1  0  0  0  0
  5  6  2  0  0  0  0
  5 10  1  0  0  0  0
  6  7  1  0  0  0  0
  6 28  1  0  0  0  0
  7  8  1  0  0  0  0
  7  9  2  0  0  0  0
  9 29  1  0  0  0  0
 10 11  1  0  0  0  0
 11 12  2  0  0  0  0
 11 26  1  0  0  0  0
 12 13  1  0  0  0  0
 12 17  1  0  0  0  0
 13 14  1  0  0  0  0
 13 30  1  0  0  0  0
 13 31  1  0  0  0  0
 14 15  1  0  0  0  0
 14 16  1  0  0  0  0
 14 18  1  0  0  0  0
 17 18  1  0  0  0  0
 17 20  2  0  0  0  0
 18 19  1  0  0  0  0
 18 32  1  1  0  0  0
 19 33  1  0  0  0  0
 20 21  1  0  0  0  0
 20 25  1  0  0  0  0
 21 22  1  0  0  0  0
 21 23  2  0  0  0  0
 21 24  2  0  0  0  0
 22 34  1  0  0  0  0
 22 35  1  0  0  0  0
 22 36  1  0  0  0  0
 25 26  2  0  0  0  0
 25 37  1  0  0  0  0
 26 38  1  0  0  0  0
M  END
$$$$
