79F
 OpenBabel04161911053D

 39 39  0  0  1  0  0  0  0  0999 V2000
   16.2453   41.4312  -10.5707 C   0  0  0  0  0  0  0  0  0  0  0  0
   17.5229   41.0864  -11.0322 C   0  0  0  0  0  0  0  0  0  0  0  0
   15.1030   41.2216  -11.3619 C   0  0  0  0  0  0  0  0  0  0  0  0
   13.7294   41.5464  -10.8417 C   0  0  0  0  0  0  0  0  0  0  0  0
   12.7208   40.8356   -8.8800 C   0  0  0  0  0  0  0  0  0  0  0  0
    8.8786   39.5088   -3.7986 C   0  0  0  0  0  0  0  0  0  0  0  0
    9.1882   40.8145   -4.0797 N   0  0  0  0  0  0  0  0  0  0  0  0
   17.6704   40.5071  -12.2904 C   0  0  0  0  0  0  0  0  0  0  0  0
   16.5370   40.2768  -13.0735 C   0  0  0  0  0  0  0  0  0  0  0  0
   15.2618   40.6267  -12.6112 C   0  0  0  0  0  0  0  0  0  0  0  0
   12.0617   40.1967   -6.6256 C   0  0  0  0  0  0  0  0  0  0  0  0
   11.5125   38.5871   -5.9378 P   0  0  1  0  0  0  0  0  0  0  0  0
   10.1659   38.2393   -6.4831 O   0  0  0  0  0  0  0  0  0  0  0  0
   12.6430   37.5989   -6.0529 O   0  0  0  0  0  0  0  0  0  0  0  0
   11.2902   38.9957   -4.2804 N   0  0  0  0  0  0  0  0  0  0  0  0
   10.0514   38.5684   -3.5939 C   0  0  1  0  0  0  0  0  0  0  0  0
    7.7234   39.1629   -3.5855 O   0  0  0  0  0  0  0  0  0  0  0  0
   10.3391   38.4144   -2.1001 C   0  0  0  0  0  0  0  0  0  0  0  0
   10.8458   37.0945   -1.8370 O   0  0  0  0  0  0  0  0  0  0  0  0
   13.5263   40.4997   -9.8901 O   0  0  0  0  0  0  0  0  0  0  0  0
   12.0156   41.8591   -8.8385 O   0  0  0  0  0  0  0  0  0  0  0  0
   12.8320   39.9857   -7.8426 N   0  0  0  0  0  0  0  0  0  0  0  0
   16.1411   41.8822   -9.5867 H   0  0  0  0  0  0  0  0  0  0  0  0
   18.3938   41.2748  -10.4063 H   0  0  0  0  0  0  0  0  0  0  0  0
   12.9601   41.5279  -11.6384 H   0  0  0  0  0  0  0  0  0  0  0  0
   13.6985   42.5585  -10.3915 H   0  0  0  0  0  0  0  0  0  0  0  0
    8.4424   41.4710   -4.2460 H   0  0  0  0  0  0  0  0  0  0  0  0
   10.1516   41.0785   -4.2294 H   0  0  0  0  0  0  0  0  0  0  0  0
   18.6567   40.2350  -12.6613 H   0  0  0  0  0  0  0  0  0  0  0  0
   16.6402   39.8240  -14.0549 H   0  0  0  0  0  0  0  0  0  0  0  0
   14.3901   40.4453  -13.2342 H   0  0  0  0  0  0  0  0  0  0  0  0
   12.6981   40.7289   -5.9049 H   0  0  0  0  0  0  0  0  0  0  0  0
   11.1824   40.8143   -6.8381 H   0  0  0  0  0  0  0  0  0  0  0  0
   11.9640   39.5522   -3.7796 H   0  0  0  0  0  0  0  0  0  0  0  0
    9.7412   37.6039   -3.9961 H   0  0  0  0  0  0  0  0  0  0  0  0
    9.4343   38.5584   -1.4946 H   0  0  0  0  0  0  0  0  0  0  0  0
   11.0903   39.1428   -1.7605 H   0  0  0  0  0  0  0  0  0  0  0  0
   11.6339   36.9690   -2.4038 H   0  0  0  0  0  0  0  0  0  0  0  0
   13.4109   39.1526   -7.9201 H   0  0  0  0  0  0  0  0  0  0  0  0
  1  2  2  0  0  0  0
  1  3  1  0  0  0  0
  1 23  1  0  0  0  0
  2  8  1  0  0  0  0
  2 24  1  0  0  0  0
  3  4  1  0  0  0  0
  3 10  2  0  0  0  0
  4 20  1  0  0  0  0
  4 25  1  0  0  0  0
  4 26  1  0  0  0  0
  5 20  1  0  0  0  0
  5 21  2  0  0  0  0
  5 22  1  0  0  0  0
  6  7  1  0  0  0  0
  6 16  1  0  0  0  0
  6 17  2  0  0  0  0
  7 27  1  0  0  0  0
  7 28  1  0  0  0  0
  8  9  2  0  0  0  0
  8 29  1  0  0  0  0
  9 10  1  0  0  0  0
  9 30  1  0  0  0  0
 10 31  1  0  0  0  0
 11 22  1  0  0  0  0
 11 32  1  0  0  0  0
 11 33  1  0  0  0  0
 12 11  1  6  0  0  0
 12 13  2  0  0  0  0
 12 14  1  0  0  0  0
 12 15  1  0  0  0  0
 15 16  1  0  0  0  0
 15 34  1  0  0  0  0
 16 18  1  0  0  0  0
 16 35  1  6  0  0  0
 18 19  1  0  0  0  0
 18 36  1  0  0  0  0
 18 37  1  0  0  0  0
 19 38  1  0  0  0  0
 22 39  1  0  0  0  0
M  END
$$$$
