7BK
 OpenBabel04161911083D

 44 46  0  0  1  0  0  0  0  0999 V2000
   27.5150    0.5611   -0.5321 C   0  0  0  0  0  0  0  0  0  0  0  0
   27.3896    1.3660   -1.8369 C   0  0  1  0  0  0  0  0  0  0  0  0
   26.1983    2.3366   -1.6938 C   0  0  0  0  0  0  0  0  0  0  0  0
   26.7861    3.6342   -1.4778 N   0  0  0  0  0  0  0  0  0  0  0  0
   26.0196    4.8221   -1.1442 C   0  0  0  0  0  0  0  0  0  0  0  0
   25.3907    5.4868   -2.3594 C   0  0  0  0  0  0  0  0  0  0  0  0
   23.9317    7.3143   -2.8349 C   0  0  0  0  0  0  0  0  0  0  0  0
   23.0648    7.7707   -5.0429 C   0  0  0  0  0  0  0  0  0  0  0  0
   22.3618    8.8549   -4.5346 C   0  0  0  0  0  0  0  0  0  0  0  0
   22.4301    9.1827   -3.1915 C   0  0  0  0  0  0  0  0  0  0  0  0
   21.7103   10.2915   -2.6756 C   0  0  0  0  0  0  0  0  0  0  0  0
   23.2202    8.4063   -2.3376 C   0  0  0  0  0  0  0  0  0  0  0  0
   28.6129    2.2868   -2.0275 C   0  0  0  0  0  0  0  0  0  0  0  0
   26.2303    0.2751   -3.8399 C   0  0  0  0  0  0  0  0  0  0  0  0
   26.2251   -0.5917   -4.9272 C   0  0  0  0  0  0  0  0  0  0  0  0
   27.3485   -1.3497   -5.2174 C   0  0  0  0  0  0  0  0  0  0  0  0
   28.4785   -1.2391   -4.4227 C   0  0  0  0  0  0  0  0  0  0  0  0
   28.4796   -0.3715   -3.3352 C   0  0  0  0  0  0  0  0  0  0  0  0
   24.6641    6.6324   -1.9092 O   0  0  0  0  0  0  0  0  0  0  0  0
   23.8511    7.0002   -4.1887 C   0  0  0  0  0  0  0  0  0  0  0  0
   21.6095    9.5869   -5.3672 F   0  0  0  0  0  0  0  0  0  0  0  0
   21.1190   11.2061   -2.2359 N   0  0  0  0  0  0  0  0  0  0  0  0
   28.1229    3.6916   -1.7942 C   0  0  0  0  0  0  0  0  0  0  0  0
   28.7886    4.7072   -1.8646 O   0  0  0  0  0  0  0  0  0  0  0  0
   27.3502    0.4032   -3.0206 C   0  0  0  0  0  0  0  0  0  0  0  0
   27.5316    1.2364    0.3340 H   0  0  0  0  0  0  0  0  0  0  0  0
   28.4412   -0.0260   -0.5302 H   0  0  0  0  0  0  0  0  0  0  0  0
   26.6663   -0.1285   -0.4202 H   0  0  0  0  0  0  0  0  0  0  0  0
   25.5599    2.0872   -0.8389 H   0  0  0  0  0  0  0  0  0  0  0  0
   25.5831    2.3811   -2.5904 H   0  0  0  0  0  0  0  0  0  0  0  0
   26.6830    5.5482   -0.6484 H   0  0  0  0  0  0  0  0  0  0  0  0
   25.2395    4.5295   -0.4381 H   0  0  0  0  0  0  0  0  0  0  0  0
   24.7148    4.7682   -2.8372 H   0  0  0  0  0  0  0  0  0  0  0  0
   26.1786    5.7817   -3.0606 H   0  0  0  0  0  0  0  0  0  0  0  0
   23.0014    7.5273   -6.0990 H   0  0  0  0  0  0  0  0  0  0  0  0
   23.2836    8.6532   -1.2812 H   0  0  0  0  0  0  0  0  0  0  0  0
   29.0083    2.2133   -3.0436 H   0  0  0  0  0  0  0  0  0  0  0  0
   29.4007    2.0506   -1.3072 H   0  0  0  0  0  0  0  0  0  0  0  0
   25.3362    0.8451   -3.6448 H   0  0  0  0  0  0  0  0  0  0  0  0
   25.3420   -0.6791   -5.5488 H   0  0  0  0  0  0  0  0  0  0  0  0
   27.3437   -2.0268   -6.0626 H   0  0  0  0  0  0  0  0  0  0  0  0
   29.3565   -1.8318   -4.6500 H   0  0  0  0  0  0  0  0  0  0  0  0
   29.3778   -0.2957   -2.7280 H   0  0  0  0  0  0  0  0  0  0  0  0
   24.3960    6.1584   -4.5971 H   0  0  0  0  0  0  0  0  0  0  0  0
  1 26  1  0  0  0  0
  1 27  1  0  0  0  0
  1 28  1  0  0  0  0
  2  1  1  1  0  0  0
  2  3  1  0  0  0  0
  2 13  1  0  0  0  0
  2 25  1  0  0  0  0
  3  4  1  0  0  0  0
  3 29  1  0  0  0  0
  3 30  1  0  0  0  0
  4  5  1  0  0  0  0
  4 23  1  0  0  0  0
  5  6  1  0  0  0  0
  5 31  1  0  0  0  0
  5 32  1  0  0  0  0
  6 19  1  0  0  0  0
  6 33  1  0  0  0  0
  6 34  1  0  0  0  0
  7 12  2  0  0  0  0
  7 19  1  0  0  0  0
  7 20  1  0  0  0  0
  8  9  1  0  0  0  0
  8 20  2  0  0  0  0
  8 35  1  0  0  0  0
  9 10  2  0  0  0  0
  9 21  1  0  0  0  0
 10 11  1  0  0  0  0
 10 12  1  0  0  0  0
 11 22  3  0  0  0  0
 12 36  1  0  0  0  0
 13 23  1  0  0  0  0
 13 37  1  0  0  0  0
 13 38  1  0  0  0  0
 14 15  2  0  0  0  0
 14 25  1  0  0  0  0
 14 39  1  0  0  0  0
 15 16  1  0  0  0  0
 15 40  1  0  0  0  0
 16 17  2  0  0  0  0
 16 41  1  0  0  0  0
 17 18  1  0  0  0  0
 17 42  1  0  0  0  0
 18 25  2  0  0  0  0
 18 43  1  0  0  0  0
 20 44  1  0  0  0  0
 23 24  2  0  0  0  0
M  END
$$$$
