7BW
 OpenBabel04161911073D

 37 38  0  0  0  0  0  0  0  0999 V2000
   27.6991    0.3621   -0.4255 C   0  0  0  0  0  0  0  0  0  0  0  0
   27.5032    1.2707   -1.6449 C   0  0  0  0  0  0  0  0  0  0  0  0
   27.2277    0.4025   -2.8768 C   0  0  0  0  0  0  0  0  0  0  0  0
   26.2215    4.7746   -1.0414 C   0  0  0  0  0  0  0  0  0  0  0  0
   25.4722    5.3502   -2.2420 C   0  0  0  0  0  0  0  0  0  0  0  0
   24.0522    6.9437   -4.1214 C   0  0  0  0  0  0  0  0  0  0  0  0
   23.2639    7.7134   -4.9801 C   0  0  0  0  0  0  0  0  0  0  0  0
   22.5415    8.7911   -4.4765 C   0  0  0  0  0  0  0  0  0  0  0  0
   22.5994    9.1151   -3.1266 C   0  0  0  0  0  0  0  0  0  0  0  0
   21.8517   10.2224   -2.6191 C   0  0  0  0  0  0  0  0  0  0  0  0
   26.3512    2.2583   -1.4065 C   0  0  0  0  0  0  0  0  0  0  0  0
   26.9651    3.5605   -1.3406 N   0  0  0  0  0  0  0  0  0  0  0  0
   24.8448    6.5710   -1.8282 O   0  0  0  0  0  0  0  0  0  0  0  0
   24.1133    7.2489   -2.7622 C   0  0  0  0  0  0  0  0  0  0  0  0
   21.7940    9.5173   -5.3184 F   0  0  0  0  0  0  0  0  0  0  0  0
   21.2505   11.1104   -2.1817 N   0  0  0  0  0  0  0  0  0  0  0  0
   23.3888    8.3403   -2.2680 C   0  0  0  0  0  0  0  0  0  0  0  0
   28.3088    3.5608   -1.6398 C   0  0  0  0  0  0  0  0  0  0  0  0
   29.0305    4.5453   -1.7111 O   0  0  0  0  0  0  0  0  0  0  0  0
   28.7534    2.1441   -1.8712 C   0  0  0  0  0  0  0  0  0  0  0  0
   26.8216   -0.2742   -0.2647 H   0  0  0  0  0  0  0  0  0  0  0  0
   27.8585    0.9531    0.4827 H   0  0  0  0  0  0  0  0  0  0  0  0
   28.5680   -0.2924   -0.5585 H   0  0  0  0  0  0  0  0  0  0  0  0
   27.0848    1.0234   -3.7681 H   0  0  0  0  0  0  0  0  0  0  0  0
   26.3235   -0.2006   -2.7386 H   0  0  0  0  0  0  0  0  0  0  0  0
   28.0629   -0.2791   -3.0730 H   0  0  0  0  0  0  0  0  0  0  0  0
   25.5263    4.5625   -0.2245 H   0  0  0  0  0  0  0  0  0  0  0  0
   26.9219    5.5346   -0.6725 H   0  0  0  0  0  0  0  0  0  0  0  0
   24.7101    4.6329   -2.5645 H   0  0  0  0  0  0  0  0  0  0  0  0
   26.1787    5.5323   -3.0601 H   0  0  0  0  0  0  0  0  0  0  0  0
   24.6109    6.1145   -4.5437 H   0  0  0  0  0  0  0  0  0  0  0  0
   23.2154    7.4834   -6.0383 H   0  0  0  0  0  0  0  0  0  0  0  0
   25.8277    2.0684   -0.4639 H   0  0  0  0  0  0  0  0  0  0  0  0
   25.6193    2.2486   -2.2215 H   0  0  0  0  0  0  0  0  0  0  0  0
   23.4384    8.5805   -1.2076 H   0  0  0  0  0  0  0  0  0  0  0  0
   29.1380    2.0567   -2.8918 H   0  0  0  0  0  0  0  0  0  0  0  0
   29.5526    1.9069   -1.1623 H   0  0  0  0  0  0  0  0  0  0  0  0
  1  2  1  0  0  0  0
  1 21  1  0  0  0  0
  1 22  1  0  0  0  0
  1 23  1  0  0  0  0
  2  3  1  0  0  0  0
  2 11  1  0  0  0  0
  2 20  1  0  0  0  0
  3 24  1  0  0  0  0
  3 25  1  0  0  0  0
  3 26  1  0  0  0  0
  4  5  1  0  0  0  0
  4 12  1  0  0  0  0
  4 27  1  0  0  0  0
  4 28  1  0  0  0  0
  5 13  1  0  0  0  0
  5 29  1  0  0  0  0
  5 30  1  0  0  0  0
  6  7  2  0  0  0  0
  6 14  1  0  0  0  0
  6 31  1  0  0  0  0
  7  8  1  0  0  0  0
  7 32  1  0  0  0  0
  8  9  2  0  0  0  0
  8 15  1  0  0  0  0
  9 10  1  0  0  0  0
  9 17  1  0  0  0  0
 10 16  3  0  0  0  0
 11 12  1  0  0  0  0
 11 33  1  0  0  0  0
 11 34  1  0  0  0  0
 12 18  1  0  0  0  0
 13 14  1  0  0  0  0
 14 17  2  0  0  0  0
 17 35  1  0  0  0  0
 18 19  2  0  0  0  0
 18 20  1  0  0  0  0
 20 36  1  0  0  0  0
 20 37  1  0  0  0  0
M  END
$$$$
