7CZ
 OpenBabel04161911533D

 17 17  0  0  1  0  0  0  0  0999 V2000
   -6.2801    0.4270   17.3292 S   0  0  0  0  0  0  0  0  0  0  0  0
   -5.8965    1.7367   16.2076 C   0  0  0  0  0  0  0  0  0  0  0  0
   -6.1871    2.9844   16.6205 C   0  0  0  0  0  0  0  0  0  0  0  0
   -6.0578    4.2326   15.9272 C   0  0  0  0  0  0  0  0  0  0  0  0
   -5.4205    4.5024   14.7726 C   0  0  0  0  0  0  0  0  0  0  0  0
   -4.6895    3.6126   13.9197 C   0  0  0  0  0  0  0  0  0  0  0  0
   -4.6655    2.2733   13.9535 C   0  0  0  0  0  0  0  0  0  0  0  0
   -5.4606    1.3409   14.8091 C   0  0  1  0  0  0  0  0  0  0  0  0
   -4.7802    0.0876   14.8034 O   0  0  0  0  0  0  0  0  0  0  0  0
   -5.7668   -0.5800   16.6013 H   0  0  0  0  0  0  0  0  0  0  0  0
   -6.6591    3.0963   17.6017 H   0  0  0  0  0  0  0  0  0  0  0  0
   -6.5060    5.0714   16.4476 H   0  0  0  0  0  0  0  0  0  0  0  0
   -5.4082    5.5468   14.4547 H   0  0  0  0  0  0  0  0  0  0  0  0
   -4.1704    4.1062   13.1055 H   0  0  0  0  0  0  0  0  0  0  0  0
   -4.0644    1.7955   13.1810 H   0  0  0  0  0  0  0  0  0  0  0  0
   -6.3896    1.1711   14.2621 H   0  0  0  0  0  0  0  0  0  0  0  0
   -5.0336   -0.3333   13.9572 H   0  0  0  0  0  0  0  0  0  0  0  0
  1  2  1  0  0  0  0
  1 10  1  0  0  0  0
  2  3  2  0  0  0  0
  2  8  1  0  0  0  0
  3  4  1  0  0  0  0
  3 11  1  0  0  0  0
  4  5  2  0  0  0  0
  4 12  1  0  0  0  0
  5  6  1  0  0  0  0
  5 13  1  0  0  0  0
  6  7  2  0  0  0  0
  6 14  1  0  0  0  0
  7  8  1  0  0  0  0
  7 15  1  0  0  0  0
  8  9  1  0  0  0  0
  8 16  1  6  0  0  0
  9 17  1  0  0  0  0
M  END
$$$$
