7DT
 OpenBabel04161910093D

 44 46  0  0  1  0  0  0  0  0999 V2000
   20.6036    0.8385    5.4517 O   0  0  0  0  0  0  0  0  0  0  0  0
   19.9208    1.4315    4.2236 P   0  0  0  0  0  0  0  0  0  0  0  0
   20.7767    2.4152    3.4160 O   0  0  0  0  0  0  0  0  0  0  0  0
   18.5388    2.0438    4.5799 O   0  0  0  0  0  0  0  0  0  0  0  0
   19.5328    0.2219    3.2478 O   0  0  0  0  0  0  0  0  0  0  0  0
   20.5728   -0.6554    2.4179 P   0  0  1  0  0  0  0  0  0  0  0  0
   20.4200   -0.5073    0.9145 O   0  0  0  0  0  0  0  0  0  0  0  0
   22.0235   -0.5150    2.9575 O   0  0  0  0  0  0  0  0  0  0  0  0
   20.1416   -2.1197    2.8863 O   0  0  0  0  0  0  0  0  0  0  0  0
   19.1121   -3.1251    2.2040 P   0  0  2  0  0  0  0  0  0  0  0  0
   19.8556   -4.3405    1.6568 O   0  0  0  0  0  0  0  0  0  0  0  0
   18.0415   -2.4849    1.3601 O   0  0  0  0  0  0  0  0  0  0  0  0
   18.3327   -3.6592    3.5602 O   0  0  0  0  0  0  0  0  0  0  0  0
   19.0387   -4.3526    4.5647 C   0  0  0  0  0  0  0  0  0  0  0  0
   18.0388   -4.8156    5.6099 C   0  0  1  0  0  0  0  0  0  0  0  0
   17.1098   -5.7418    4.9590 O   0  0  0  0  0  0  0  0  0  0  0  0
   16.9777   -6.8799    5.8061 C   0  0  1  0  0  0  0  0  0  0  0  0
   16.5128   -8.0351    5.0528 N   0  3  0  0  0  0  0  0  0  0  0  0
   17.1682   -8.6268    3.9862 C   0  0  0  0  0  0  0  0  0  0  0  0
   16.4569   -9.7361    3.6036 C   0  0  0  0  0  0  0  0  0  0  0  0
   15.3290   -9.8413    4.4181 C   0  0  0  0  0  0  0  0  0  0  0  0
   14.2619  -10.7463    4.4864 C   0  0  0  0  0  0  0  0  0  0  0  0
   14.1605  -11.8227    3.6321 N   0  0  0  0  0  0  0  0  0  0  0  0
   13.3188  -10.5551    5.4422 N   0  0  0  0  0  0  0  0  0  0  0  0
   13.4741   -9.4761    6.2525 C   0  0  0  0  0  0  0  0  0  0  0  0
   14.4655   -8.5464    6.2893 N   0  0  0  0  0  0  0  0  0  0  0  0
   15.3807   -8.7870    5.3111 C   0  0  0  0  0  0  0  0  0  0  0  0
   18.3615   -7.0622    6.4237 C   0  0  2  0  0  0  0  0  0  0  0  0
   18.3473   -7.8492    7.6243 O   0  0  0  0  0  0  0  0  0  0  0  0
   18.7360   -5.6119    6.7166 C   0  0  2  0  0  0  0  0  0  0  0  0
   18.1544   -5.2280    7.9825 O   0  0  0  0  0  0  0  0  0  0  0  0
   19.7775   -3.7107    5.0479 H   0  0  0  0  0  0  0  0  0  0  0  0
   19.5198   -5.2420    4.1532 H   0  0  0  0  0  0  0  0  0  0  0  0
   17.4598   -3.9768    6.0311 H   0  0  0  0  0  0  0  0  0  0  0  0
   16.2330   -6.6262    6.5706 H   0  0  0  0  0  0  0  0  0  0  0  0
   18.0812   -8.2177    3.5657 H   0  0  0  0  0  0  0  0  0  0  0  0
   16.7362  -10.3924    2.7878 H   0  0  0  0  0  0  0  0  0  0  0  0
   13.3836  -12.4480    3.7001 H   0  0  0  0  0  0  0  0  0  0  0  0
   14.8775  -11.9398    2.9214 H   0  0  0  0  0  0  0  0  0  0  0  0
   12.6953   -9.3416    7.0031 H   0  0  0  0  0  0  0  0  0  0  0  0
   19.0586   -7.5315    5.7123 H   0  0  0  0  0  0  0  0  0  0  0  0
   17.7802   -7.3567    8.2497 H   0  0  0  0  0  0  0  0  0  0  0  0
   19.8179   -5.4495    6.7561 H   0  0  0  0  0  0  0  0  0  0  0  0
   18.5575   -5.7746    8.6762 H   0  0  0  0  0  0  0  0  0  0  0  0
  1  2  2  0  0  0  0
  2  3  1  0  0  0  0
  2  4  1  0  0  0  0
  2  5  1  0  0  0  0
  6  5  1  1  0  0  0
  6  7  2  0  0  0  0
  6  8  1  0  0  0  0
  6  9  1  0  0  0  0
 10  9  1  1  0  0  0
 10 11  2  0  0  0  0
 10 12  1  0  0  0  0
 10 13  1  0  0  0  0
 13 14  1  0  0  0  0
 14 15  1  0  0  0  0
 14 32  1  0  0  0  0
 14 33  1  0  0  0  0
 15 16  1  0  0  0  0
 15 30  1  0  0  0  0
 15 34  1  1  0  0  0
 16 17  1  0  0  0  0
 17 18  1  0  0  0  0
 17 28  1  0  0  0  0
 17 35  1  1  0  0  0
 18 19  1  0  0  0  0
 18 27  2  0  0  0  0
 19 20  2  0  0  0  0
 19 36  1  0  0  0  0
 20 21  1  0  0  0  0
 20 37  1  0  0  0  0
 21 22  2  0  0  0  0
 21 27  1  0  0  0  0
 22 23  1  0  0  0  0
 22 24  1  0  0  0  0
 23 38  1  0  0  0  0
 23 39  1  0  0  0  0
 24 25  1  0  0  0  0
 25 26  2  0  0  0  0
 25 40  1  0  0  0  0
 26 27  1  0  0  0  0
 28 29  1  0  0  0  0
 28 30  1  0  0  0  0
 28 41  1  6  0  0  0
 29 42  1  0  0  0  0
 30 31  1  0  0  0  0
 30 43  1  6  0  0  0
 31 44  1  0  0  0  0
M  CHG  1  18   1
M  END
$$$$
