7FU
 OpenBabel04161910293D

 24 25  0  0  0  0  0  0  0  0999 V2000
   18.9502   -1.0197  -18.0601 N   0  0  0  0  0  0  0  0  0  0  0  0
   20.6110    1.3586  -23.5358 C   0  0  0  0  0  0  0  0  0  0  0  0
   19.3656    1.5632  -24.1221 C   0  0  0  0  0  0  0  0  0  0  0  0
   19.7654    0.1184  -20.0463 C   0  0  0  0  0  0  0  0  0  0  0  0
   20.7529    0.8812  -22.2111 C   0  0  0  0  0  0  0  0  0  0  0  0
   18.3347    0.8105  -22.0245 C   0  0  0  0  0  0  0  0  0  0  0  0
   22.3141    3.2292  -27.2567 N   0  0  0  0  0  0  0  0  0  0  0  0
   20.6406    2.2121  -25.8950 C   0  0  0  0  0  0  0  0  0  0  0  0
   19.3992    2.0262  -25.4556 N   0  0  0  0  0  0  0  0  0  0  0  0
   21.8163    1.7802  -24.6831 S   0  0  0  0  0  0  0  0  0  0  0  0
   19.5916    0.5988  -21.4565 C   0  0  0  0  0  0  0  0  0  0  0  0
   20.8589    0.3675  -19.4924 O   0  0  0  0  0  0  0  0  0  0  0  0
   18.2098    1.2843  -23.3472 C   0  0  0  0  0  0  0  0  0  0  0  0
   21.0095    2.6640  -27.1516 N   0  0  0  0  0  0  0  0  0  0  0  0
   18.7670   -0.6020  -19.4113 N   0  0  0  0  0  0  0  0  0  0  0  0
   18.1438   -1.5485  -17.7235 H   0  0  0  0  0  0  0  0  0  0  0  0
   19.7668   -1.6433  -18.0149 H   0  0  0  0  0  0  0  0  0  0  0  0
   21.7453    0.7286  -21.7764 H   0  0  0  0  0  0  0  0  0  0  0  0
   17.4341    0.6254  -21.4507 H   0  0  0  0  0  0  0  0  0  0  0  0
   22.5220    3.5662  -28.2042 H   0  0  0  0  0  0  0  0  0  0  0  0
   22.3842    4.0494  -26.6416 H   0  0  0  0  0  0  0  0  0  0  0  0
   17.2252    1.4380  -23.7868 H   0  0  0  0  0  0  0  0  0  0  0  0
   20.4208    2.6211  -27.9866 H   0  0  0  0  0  0  0  0  0  0  0  0
   17.8948   -0.8190  -19.8755 H   0  0  0  0  0  0  0  0  0  0  0  0
  1 15  1  0  0  0  0
  1 16  1  0  0  0  0
  1 17  1  0  0  0  0
  2  3  2  0  0  0  0
  2  5  1  0  0  0  0
  2 10  1  0  0  0  0
  3  9  1  0  0  0  0
  3 13  1  0  0  0  0
  4 11  1  0  0  0  0
  4 12  2  0  0  0  0
  4 15  1  0  0  0  0
  5 11  2  0  0  0  0
  5 18  1  0  0  0  0
  6 11  1  0  0  0  0
  6 13  2  0  0  0  0
  6 19  1  0  0  0  0
  7 14  1  0  0  0  0
  7 20  1  0  0  0  0
  7 21  1  0  0  0  0
  8  9  2  0  0  0  0
  8 10  1  0  0  0  0
  8 14  1  0  0  0  0
 13 22  1  0  0  0  0
 14 23  1  0  0  0  0
 15 24  1  0  0  0  0
M  END
$$$$
