7GR
 OpenBabel04161911123D

 52 52  0  0  1  0  0  0  0  0999 V2000
   56.4769   41.7425    3.5149 C   0  0  0  0  0  0  0  0  0  0  0  0
   54.2515   38.7380    4.1759 C   0  0  2  0  0  0  0  0  0  0  0  0
   54.5684   37.6724    5.2564 C   0  0  0  0  0  0  0  0  0  0  0  0
   53.7370   38.1678    2.8463 C   0  0  0  0  0  0  0  0  0  0  0  0
   55.6013   38.2085    1.1342 C   0  0  0  0  0  0  0  0  0  0  0  0
   58.2388   40.0743    6.6888 C   0  0  0  0  0  0  0  0  0  0  0  0
   57.6001   41.2392    4.2978 N   0  0  0  0  0  0  0  0  0  0  0  0
   55.1992   40.9492    3.6342 C   0  0  0  0  0  0  0  0  0  0  0  0
   54.0994   41.4253    3.3292 O   0  0  0  0  0  0  0  0  0  0  0  0
   55.3634   39.6436    3.9626 N   0  0  0  0  0  0  0  0  0  0  0  0
   55.7582   37.6762    5.7012 O   0  0  0  0  0  0  0  0  0  0  0  0
   53.6072   36.9137    5.5522 O   0  0  0  0  0  0  0  0  0  0  0  0
   54.7675   37.3405    2.0706 C   0  0  0  0  0  0  0  0  0  0  0  0
   54.0496   36.2855    1.2339 C   0  0  0  0  0  0  0  0  0  0  0  0
   57.7244   41.6747    5.9573 P   0  0  2  0  0  0  0  0  0  0  0  0
   58.8663   42.6565    6.0894 O   0  0  0  0  0  0  0  0  0  0  0  0
   56.3729   42.0905    6.4362 O   0  0  0  0  0  0  0  0  0  0  0  0
   59.9809   38.7603   10.9151 C   0  0  0  0  0  0  0  0  0  0  0  0
   61.3734   39.0871   11.3860 C   0  0  0  0  0  0  0  0  0  0  0  0
   62.4871   38.8470   10.5754 C   0  0  0  0  0  0  0  0  0  0  0  0
   63.7757   39.1460   11.0243 C   0  0  0  0  0  0  0  0  0  0  0  0
   63.9611   39.7585   12.2564 C   0  0  0  0  0  0  0  0  0  0  0  0
   62.8547   40.0223   13.0542 C   0  0  0  0  0  0  0  0  0  0  0  0
   61.5718   39.6800   12.6310 C   0  0  0  0  0  0  0  0  0  0  0  0
   58.9987   40.3168    7.9328 N   0  0  0  0  0  0  0  0  0  0  0  0
   58.9303   39.4539    8.9557 C   0  0  0  0  0  0  0  0  0  0  0  0
   58.3796   38.3399    8.8920 O   0  0  0  0  0  0  0  0  0  0  0  0
   59.6009   39.8469   10.0559 O   0  0  0  0  0  0  0  0  0  0  0  0
   56.7993   41.7466    2.4671 H   0  0  0  0  0  0  0  0  0  0  0  0
   56.2712   42.7625    3.8352 H   0  0  0  0  0  0  0  0  0  0  0  0
   53.4170   39.3239    4.5783 H   0  0  0  0  0  0  0  0  0  0  0  0
   53.4039   39.0050    2.2166 H   0  0  0  0  0  0  0  0  0  0  0  0
   52.8638   37.5377    3.0596 H   0  0  0  0  0  0  0  0  0  0  0  0
   56.3258   37.5875    0.5950 H   0  0  0  0  0  0  0  0  0  0  0  0
   56.1487   38.9694    1.6929 H   0  0  0  0  0  0  0  0  0  0  0  0
   54.9569   38.7083    0.3996 H   0  0  0  0  0  0  0  0  0  0  0  0
   58.8799   39.5157    5.9890 H   0  0  0  0  0  0  0  0  0  0  0  0
   57.3459   39.4871    6.9013 H   0  0  0  0  0  0  0  0  0  0  0  0
   58.2249   40.5596    3.8904 H   0  0  0  0  0  0  0  0  0  0  0  0
   56.2757   39.2937    4.2413 H   0  0  0  0  0  0  0  0  0  0  0  0
   55.4339   36.8455    2.7829 H   0  0  0  0  0  0  0  0  0  0  0  0
   53.4354   35.6432    1.8750 H   0  0  0  0  0  0  0  0  0  0  0  0
   54.7793   35.6598    0.7086 H   0  0  0  0  0  0  0  0  0  0  0  0
   53.3977   36.7630    0.4906 H   0  0  0  0  0  0  0  0  0  0  0  0
   59.3026   38.6588   11.7798 H   0  0  0  0  0  0  0  0  0  0  0  0
   59.9942   37.7922   10.3887 H   0  0  0  0  0  0  0  0  0  0  0  0
   62.3455   38.4140    9.5893 H   0  0  0  0  0  0  0  0  0  0  0  0
   64.6301   38.8985   10.4053 H   0  0  0  0  0  0  0  0  0  0  0  0
   64.9563   40.0314   12.5922 H   0  0  0  0  0  0  0  0  0  0  0  0
   62.9800   40.4945   14.0200 H   0  0  0  0  0  0  0  0  0  0  0  0
   60.7169   39.8731   13.2699 H   0  0  0  0  0  0  0  0  0  0  0  0
   59.5198   41.1836    7.9782 H   0  0  0  0  0  0  0  0  0  0  0  0
  1  7  1  0  0  0  0
  1  8  1  0  0  0  0
  1 29  1  0  0  0  0
  1 30  1  0  0  0  0
  2  3  1  0  0  0  0
  2  4  1  0  0  0  0
  2 10  1  0  0  0  0
  2 31  1  1  0  0  0
  3 11  2  0  0  0  0
  3 12  1  0  0  0  0
  4 13  1  0  0  0  0
  4 32  1  0  0  0  0
  4 33  1  0  0  0  0
  5 13  1  0  0  0  0
  5 34  1  0  0  0  0
  5 35  1  0  0  0  0
  5 36  1  0  0  0  0
  6 25  1  0  0  0  0
  6 37  1  0  0  0  0
  6 38  1  0  0  0  0
  7 15  1  0  0  0  0
  7 39  1  0  0  0  0
  8  9  2  0  0  0  0
  8 10  1  0  0  0  0
 10 40  1  0  0  0  0
 13 14  1  0  0  0  0
 13 41  1  0  0  0  0
 14 42  1  0  0  0  0
 14 43  1  0  0  0  0
 14 44  1  0  0  0  0
 15  6  1  1  0  0  0
 15 16  2  0  0  0  0
 15 17  1  0  0  0  0
 18 19  1  0  0  0  0
 18 28  1  0  0  0  0
 18 45  1  0  0  0  0
 18 46  1  0  0  0  0
 19 20  2  0  0  0  0
 19 24  1  0  0  0  0
 20 21  1  0  0  0  0
 20 47  1  0  0  0  0
 21 22  2  0  0  0  0
 21 48  1  0  0  0  0
 22 23  1  0  0  0  0
 22 49  1  0  0  0  0
 23 24  2  0  0  0  0
 23 50  1  0  0  0  0
 24 51  1  0  0  0  0
 25 26  1  0  0  0  0
 25 52  1  0  0  0  0
 26 27  2  0  0  0  0
 26 28  1  0  0  0  0
M  END
$$$$
