7H7
 OpenBabel04161911543D

 52 55  0  0  1  0  0  0  0  0999 V2000
   30.8055   77.1570   48.3803 C   0  0  0  0  0  0  0  0  0  0  0  0
   29.3889   77.5506   48.0544 N   0  3  0  0  0  0  0  0  0  0  0  0
   28.8906   78.5743   49.0334 C   0  0  0  0  0  0  0  0  0  0  0  0
   28.4774   76.3223   47.8138 C   0  0  1  0  0  0  0  0  0  0  0  0
   28.4939   75.3259   48.9444 C   0  0  0  0  0  0  0  0  0  0  0  0
   27.8430   75.5920   50.1571 C   0  0  0  0  0  0  0  0  0  0  0  0
   27.9110   74.6809   51.2000 C   0  0  0  0  0  0  0  0  0  0  0  0
   28.6087   73.4844   51.0429 C   0  0  0  0  0  0  0  0  0  0  0  0
   29.2330   73.1945   49.8294 C   0  0  0  0  0  0  0  0  0  0  0  0
   29.1753   74.1073   48.7739 C   0  0  0  0  0  0  0  0  0  0  0  0
   27.0332   76.7532   47.3828 C   0  0  2  0  0  0  0  0  0  0  0  0
   26.1731   75.5560   46.9650 C   0  0  0  0  0  0  0  0  0  0  0  0
   27.1516   77.6859   46.2561 N   0  0  0  0  0  0  0  0  0  0  0  0
   26.4163   78.8577   46.1659 C   0  0  0  0  0  0  0  0  0  0  0  0
   26.2465   79.4860   44.8014 C   0  0  0  0  0  0  0  0  0  0  0  0
   26.6600   78.8526   43.6218 C   0  0  0  0  0  0  0  0  0  0  0  0
   26.4947   79.4905   42.3915 C   0  0  0  0  0  0  0  0  0  0  0  0
   25.9281   80.7638   42.3365 C   0  0  0  0  0  0  0  0  0  0  0  0
   25.5018   81.3941   43.5039 C   0  0  0  0  0  0  0  0  0  0  0  0
   25.6447   80.7496   44.7363 C   0  0  0  0  0  0  0  0  0  0  0  0
   25.1527   81.3066   45.9708 C   0  0  0  0  0  0  0  0  0  0  0  0
   25.2940   80.5848   47.1275 N   0  3  0  0  0  0  0  0  0  0  0  0
   25.9462   79.3858   47.2709 N   0  0  0  0  0  0  0  0  0  0  0  0
   24.5329   82.4368   46.2206 N   0  0  0  0  0  0  0  0  0  0  0  0
   24.2366   82.4581   47.5659 N   0  0  0  0  0  0  0  0  0  0  0  0
   24.6842   81.3395   48.1029 C   0  0  0  0  0  0  0  0  0  0  0  0
   24.5761   80.9301   49.5180 C   0  0  0  0  0  0  0  0  0  0  0  0
   31.3925   78.0673   48.5262 H   0  0  0  0  0  0  0  0  0  0  0  0
   31.2041   76.5816   47.5418 H   0  0  0  0  0  0  0  0  0  0  0  0
   30.8101   76.5677   49.3018 H   0  0  0  0  0  0  0  0  0  0  0  0
   27.8725   78.8583   48.7838 H   0  0  0  0  0  0  0  0  0  0  0  0
   29.5313   79.4560   48.9436 H   0  0  0  0  0  0  0  0  0  0  0  0
   28.9473   78.1655   50.0429 H   0  0  0  0  0  0  0  0  0  0  0  0
   28.9325   75.8533   46.9289 H   0  0  0  0  0  0  0  0  0  0  0  0
   27.2717   76.5049   50.3122 H   0  0  0  0  0  0  0  0  0  0  0  0
   27.4118   74.8930   52.1448 H   0  0  0  0  0  0  0  0  0  0  0  0
   28.6581   72.7716   51.8640 H   0  0  0  0  0  0  0  0  0  0  0  0
   29.7598   72.2491   49.7081 H   0  0  0  0  0  0  0  0  0  0  0  0
   29.6648   73.8495   47.8436 H   0  0  0  0  0  0  0  0  0  0  0  0
   26.5250   77.2255   48.2303 H   0  0  0  0  0  0  0  0  0  0  0  0
   25.1762   75.8836   46.6508 H   0  0  0  0  0  0  0  0  0  0  0  0
   26.0354   74.8571   47.7973 H   0  0  0  0  0  0  0  0  0  0  0  0
   26.6234   75.0050   46.1326 H   0  0  0  0  0  0  0  0  0  0  0  0
   27.3928   77.2260   45.3857 H   0  0  0  0  0  0  0  0  0  0  0  0
   27.0916   77.8606   43.6040 H   0  0  0  0  0  0  0  0  0  0  0  0
   26.7985   78.9913   41.4765 H   0  0  0  0  0  0  0  0  0  0  0  0
   25.8016   81.2586   41.3762 H   0  0  0  0  0  0  0  0  0  0  0  0
   25.0496   82.3844   43.4531 H   0  0  0  0  0  0  0  0  0  0  0  0
   23.9870   81.6591   50.0844 H   0  0  0  0  0  0  0  0  0  0  0  0
   25.5665   80.8668   49.9789 H   0  0  0  0  0  0  0  0  0  0  0  0
   24.0837   79.9573   49.6105 H   0  0  0  0  0  0  0  0  0  0  0  0
   29.3872   78.0393   47.1482 H   0  0  0  0  0  0  0  0  0  0  0  0
  1  2  1  0  0  0  0
  1 28  1  0  0  0  0
  1 29  1  0  0  0  0
  1 30  1  0  0  0  0
  2  3  1  0  0  0  0
  2  4  1  0  0  0  0
  2 52  1  0  0  0  0
  3 31  1  0  0  0  0
  3 32  1  0  0  0  0
  3 33  1  0  0  0  0
  4  5  1  0  0  0  0
  4 11  1  0  0  0  0
  4 34  1  6  0  0  0
  5  6  2  0  0  0  0
  5 10  1  0  0  0  0
  6  7  1  0  0  0  0
  6 35  1  0  0  0  0
  7  8  2  0  0  0  0
  7 36  1  0  0  0  0
  8  9  1  0  0  0  0
  8 37  1  0  0  0  0
  9 10  2  0  0  0  0
  9 38  1  0  0  0  0
 10 39  1  0  0  0  0
 11 12  1  0  0  0  0
 11 13  1  0  0  0  0
 11 40  1  1  0  0  0
 12 41  1  0  0  0  0
 12 42  1  0  0  0  0
 12 43  1  0  0  0  0
 13 14  1  0  0  0  0
 13 44  1  0  0  0  0
 14 15  2  0  0  0  0
 14 23  1  0  0  0  0
 15 16  1  0  0  0  0
 15 20  1  0  0  0  0
 16 17  2  0  0  0  0
 16 45  1  0  0  0  0
 17 18  1  0  0  0  0
 17 46  1  0  0  0  0
 18 19  2  0  0  0  0
 18 47  1  0  0  0  0
 19 20  1  0  0  0  0
 19 48  1  0  0  0  0
 20 21  2  0  0  0  0
 21 22  1  0  0  0  0
 21 24  1  0  0  0  0
 22 23  2  0  0  0  0
 22 26  1  0  0  0  0
 24 25  1  0  0  0  0
 25 26  2  0  0  0  0
 26 27  1  0  0  0  0
 27 49  1  0  0  0  0
 27 50  1  0  0  0  0
 27 51  1  0  0  0  0
M  CHG  2   2   1  22   1
M  END
$$$$
