7K2
 OpenBabel04161911243D

 45 46  0  0  1  0  0  0  0  0999 V2000
    4.1348  -33.5915   -4.8803 O   0  0  0  0  0  0  0  0  0  0  0  0
    3.2112  -32.8428   -5.6870 C   0  0  1  0  0  0  0  0  0  0  0  0
    2.4334  -31.8185   -4.8456 C   0  0  1  0  0  0  0  0  0  0  0  0
    1.6868  -32.4955   -3.8334 O   0  0  0  0  0  0  0  0  0  0  0  0
    3.3787  -30.7694   -4.2640 C   0  0  2  0  0  0  0  0  0  0  0  0
    2.6186  -29.7515   -3.6115 O   0  0  0  0  0  0  0  0  0  0  0  0
    4.2311  -30.1660   -5.4030 C   0  0  1  0  0  0  0  0  0  0  0  0
    5.2724  -29.1790   -4.8637 C   0  0  0  0  0  0  0  0  0  0  0  0
    4.8914  -31.1590   -6.2128 O   0  0  0  0  0  0  0  0  0  0  0  0
    4.0006  -32.1300   -6.7984 C   0  0  2  0  0  0  0  0  0  0  0  0
    2.8608  -31.4189   -8.0636 S   0  0  0  0  0  0  0  0  0  0  0  0
    4.0556  -30.7256   -9.2395 C   0  0  0  0  0  0  0  0  0  0  0  0
    4.1420  -31.5758  -10.5221 C   0  0  1  0  0  0  0  0  0  0  0  0
    2.8454  -31.4434  -11.3198 C   0  0  0  0  0  0  0  0  0  0  0  0
    2.9441  -32.2548  -12.5714 N   0  3  0  0  0  0  0  0  0  0  0  0
    4.0828  -31.9054  -13.4599 C   0  0  0  0  0  0  0  0  0  0  0  0
    5.3962  -32.0189  -12.6974 C   0  0  1  0  0  0  0  0  0  0  0  0
    6.4446  -31.5990  -13.5687 O   0  0  0  0  0  0  0  0  0  0  0  0
    5.3372  -31.1544  -11.4059 C   0  0  2  0  0  0  0  0  0  0  0  0
    6.5395  -31.3569  -10.6763 O   0  0  0  0  0  0  0  0  0  0  0  0
    6.1198  -29.7805   -3.8945 O   0  0  0  0  0  0  0  0  0  0  0  0
    4.7221  -33.0004   -4.3978 H   0  0  0  0  0  0  0  0  0  0  0  0
    2.5116  -33.5697   -6.1137 H   0  0  0  0  0  0  0  0  0  0  0  0
    1.6805  -31.3069   -5.4639 H   0  0  0  0  0  0  0  0  0  0  0  0
    1.2302  -31.8204   -3.2919 H   0  0  0  0  0  0  0  0  0  0  0  0
    4.0151  -31.2319   -3.4912 H   0  0  0  0  0  0  0  0  0  0  0  0
    2.0861  -29.2804   -4.2750 H   0  0  0  0  0  0  0  0  0  0  0  0
    3.5825  -29.5843   -6.0623 H   0  0  0  0  0  0  0  0  0  0  0  0
    4.7698  -28.3274   -4.3955 H   0  0  0  0  0  0  0  0  0  0  0  0
    5.9054  -28.8027   -5.6752 H   0  0  0  0  0  0  0  0  0  0  0  0
    4.6300  -32.8707   -7.3052 H   0  0  0  0  0  0  0  0  0  0  0  0
    5.0210  -30.6252   -8.7465 H   0  0  0  0  0  0  0  0  0  0  0  0
    3.7079  -29.7200   -9.4968 H   0  0  0  0  0  0  0  0  0  0  0  0
    4.2950  -32.6243  -10.2347 H   0  0  0  0  0  0  0  0  0  0  0  0
    2.6391  -30.4082  -11.6055 H   0  0  0  0  0  0  0  0  0  0  0  0
    1.9837  -31.8422  -10.7758 H   0  0  0  0  0  0  0  0  0  0  0  0
    3.0209  -33.2455  -12.3141 H   0  0  0  0  0  0  0  0  0  0  0  0
    3.9274  -30.8936  -13.8606 H   0  0  0  0  0  0  0  0  0  0  0  0
    4.0669  -32.6018  -14.3070 H   0  0  0  0  0  0  0  0  0  0  0  0
    5.5919  -33.0636  -12.4187 H   0  0  0  0  0  0  0  0  0  0  0  0
    6.5430  -32.2438  -14.2974 H   0  0  0  0  0  0  0  0  0  0  0  0
    5.2638  -30.0918  -11.6832 H   0  0  0  0  0  0  0  0  0  0  0  0
    6.6148  -30.7241   -9.9391 H   0  0  0  0  0  0  0  0  0  0  0  0
    6.5734  -30.5237   -4.3231 H   0  0  0  0  0  0  0  0  0  0  0  0
    2.0664  -32.1694  -13.0994 H   0  0  0  0  0  0  0  0  0  0  0  0
  1  2  1  0  0  0  0
  1 22  1  0  0  0  0
  2  3  1  0  0  0  0
  2 10  1  0  0  0  0
  2 23  1  6  0  0  0
  3  4  1  0  0  0  0
  3  5  1  0  0  0  0
  3 24  1  6  0  0  0
  4 25  1  0  0  0  0
  5  6  1  0  0  0  0
  5  7  1  0  0  0  0
  5 26  1  1  0  0  0
  6 27  1  0  0  0  0
  7  8  1  0  0  0  0
  7  9  1  0  0  0  0
  7 28  1  6  0  0  0
  8 21  1  0  0  0  0
  8 29  1  0  0  0  0
  8 30  1  0  0  0  0
  9 10  1  0  0  0  0
 10 11  1  0  0  0  0
 10 31  1  6  0  0  0
 11 12  1  0  0  0  0
 12 13  1  0  0  0  0
 12 32  1  0  0  0  0
 12 33  1  0  0  0  0
 13 14  1  0  0  0  0
 13 19  1  0  0  0  0
 13 34  1  1  0  0  0
 14 15  1  0  0  0  0
 14 35  1  0  0  0  0
 14 36  1  0  0  0  0
 15 16  1  0  0  0  0
 15 37  1  0  0  0  0
 15 45  1  0  0  0  0
 16 17  1  0  0  0  0
 16 38  1  0  0  0  0
 16 39  1  0  0  0  0
 17 18  1  0  0  0  0
 17 19  1  0  0  0  0
 17 40  1  1  0  0  0
 18 41  1  0  0  0  0
 19 20  1  0  0  0  0
 19 42  1  6  0  0  0
 20 43  1  0  0  0  0
 21 44  1  0  0  0  0
M  CHG  1  15   1
M  END
$$$$
