7L6
 OpenBabel04161911553D

 58 61  0  0  1  0  0  0  0  0999 V2000
  -21.0706  -14.6763    3.0932 C   0  0  0  0  0  0  0  0  0  0  0  0
  -21.2431  -13.4413    2.4368 C   0  0  0  0  0  0  0  0  0  0  0  0
  -22.0084  -12.5075    3.1043 C   0  0  0  0  0  0  0  0  0  0  0  0
  -25.0196  -13.6646    7.1051 C   0  0  0  0  0  0  0  0  0  0  0  0
  -22.5386  -12.7583    4.2966 N   0  0  0  0  0  0  0  0  0  0  0  0
  -24.2351  -15.8897    7.0895 C   0  0  0  0  0  0  0  0  0  0  0  0
  -21.6096  -14.9090    4.2822 N   0  0  0  0  0  0  0  0  0  0  0  0
  -22.8045  -15.4558    6.7683 C   0  0  0  0  0  0  0  0  0  0  0  0
  -22.8610  -14.1520    6.1045 N   0  0  0  0  0  0  0  0  0  0  0  0
  -22.3306  -13.9559    4.8758 C   0  0  0  0  0  0  0  0  0  0  0  0
  -20.3144  -15.6506    2.4586 C   0  0  0  0  0  0  0  0  0  0  0  0
  -19.7334  -15.4379    1.1996 C   0  0  0  0  0  0  0  0  0  0  0  0
  -18.9702  -16.3795    0.5510 O   0  0  0  0  0  0  0  0  0  0  0  0
  -18.8419  -17.6500    1.1939 C   0  0  0  0  0  0  0  0  0  0  0  0
  -19.9290  -14.1982    0.5523 C   0  0  0  0  0  0  0  0  0  0  0  0
  -19.3380  -14.0163   -0.6709 O   0  0  0  0  0  0  0  0  0  0  0  0
  -19.8321  -12.9562   -1.4883 C   0  0  0  0  0  0  0  0  0  0  0  0
  -20.6677  -13.2143    1.1812 C   0  0  0  0  0  0  0  0  0  0  0  0
  -22.2286  -11.2333    2.5552 N   0  0  0  0  0  0  0  0  0  0  0  0
  -22.9011  -10.2357    3.3539 C   0  0  2  0  0  0  0  0  0  0  0  0
  -24.3199  -10.0356    2.8365 C   0  0  0  0  0  0  0  0  0  0  0  0
  -22.1087   -8.9348    3.2815 C   0  0  0  0  0  0  0  0  0  0  0  0
  -22.8515   -7.7884    3.9300 C   0  0  0  0  0  0  0  0  0  0  0  0
  -24.1883   -7.6364    3.2678 N   0  3  2  0  0  0  0  0  0  0  0  0
  -24.9092   -6.4324    3.7847 C   0  0  0  0  0  0  0  0  0  0  0  0
  -25.0018   -8.8704    3.5124 C   0  0  0  0  0  0  0  0  0  0  0  0
  -23.6418  -13.1033    6.7577 C   0  0  0  0  0  0  0  0  0  0  0  0
  -24.8948  -14.8729    7.8794 O   0  0  0  0  0  0  0  0  0  0  0  0
  -25.5682  -13.8879    6.1829 H   0  0  0  0  0  0  0  0  0  0  0  0
  -25.5931  -12.9366    7.6903 H   0  0  0  0  0  0  0  0  0  0  0  0
  -24.2424  -16.8282    7.6560 H   0  0  0  0  0  0  0  0  0  0  0  0
  -24.7978  -16.0355    6.1586 H   0  0  0  0  0  0  0  0  0  0  0  0
  -22.3291  -16.2107    6.1368 H   0  0  0  0  0  0  0  0  0  0  0  0
  -22.2279  -15.3771    7.7016 H   0  0  0  0  0  0  0  0  0  0  0  0
  -20.1666  -16.6099    2.9507 H   0  0  0  0  0  0  0  0  0  0  0  0
  -18.2082  -18.2929    0.5742 H   0  0  0  0  0  0  0  0  0  0  0  0
  -19.8229  -18.1283    1.2993 H   0  0  0  0  0  0  0  0  0  0  0  0
  -18.3660  -17.5436    2.1760 H   0  0  0  0  0  0  0  0  0  0  0  0
  -19.2553  -12.9416   -2.4205 H   0  0  0  0  0  0  0  0  0  0  0  0
  -19.7041  -11.9842   -1.0009 H   0  0  0  0  0  0  0  0  0  0  0  0
  -20.8873  -13.1192   -1.7339 H   0  0  0  0  0  0  0  0  0  0  0  0
  -20.7991  -12.2480    0.7132 H   0  0  0  0  0  0  0  0  0  0  0  0
  -21.9512  -11.0473    1.6037 H   0  0  0  0  0  0  0  0  0  0  0  0
  -22.9466  -10.5419    4.4036 H   0  0  0  0  0  0  0  0  0  0  0  0
  -24.9105  -10.9314    3.0307 H   0  0  0  0  0  0  0  0  0  0  0  0
  -24.2928   -9.8584    1.7550 H   0  0  0  0  0  0  0  0  0  0  0  0
  -21.9078   -8.6872    2.2323 H   0  0  0  0  0  0  0  0  0  0  0  0
  -21.1550   -9.0583    3.7989 H   0  0  0  0  0  0  0  0  0  0  0  0
  -22.3125   -6.8465    3.8125 H   0  0  0  0  0  0  0  0  0  0  0  0
  -23.0406   -7.9821    4.9902 H   0  0  0  0  0  0  0  0  0  0  0  0
  -25.8629   -6.3588    3.2613 H   0  0  0  0  0  0  0  0  0  0  0  0
  -24.2900   -5.5570    3.5911 H   0  0  0  0  0  0  0  0  0  0  0  0
  -25.0608   -6.5782    4.8542 H   0  0  0  0  0  0  0  0  0  0  0  0
  -25.0589   -9.0045    4.5973 H   0  0  0  0  0  0  0  0  0  0  0  0
  -26.0010   -8.6959    3.1063 H   0  0  0  0  0  0  0  0  0  0  0  0
  -23.1323  -12.7669    7.6712 H   0  0  0  0  0  0  0  0  0  0  0  0
  -23.7669  -12.2286    6.1110 H   0  0  0  0  0  0  0  0  0  0  0  0
  -24.0496   -7.5217    2.2508 H   0  0  0  0  0  0  0  0  0  0  0  0
  1  2  2  0  0  0  0
  1  7  1  0  0  0  0
  1 11  1  0  0  0  0
  2  3  1  0  0  0  0
  2 18  1  0  0  0  0
  3  5  2  0  0  0  0
  3 19  1  0  0  0  0
  4 27  1  0  0  0  0
  4 28  1  0  0  0  0
  4 29  1  0  0  0  0
  4 30  1  0  0  0  0
  5 10  1  0  0  0  0
  6  8  1  0  0  0  0
  6 28  1  0  0  0  0
  6 31  1  0  0  0  0
  6 32  1  0  0  0  0
  7 10  2  0  0  0  0
  8  9  1  0  0  0  0
  8 33  1  0  0  0  0
  8 34  1  0  0  0  0
  9 10  1  0  0  0  0
  9 27  1  0  0  0  0
 11 12  2  0  0  0  0
 11 35  1  0  0  0  0
 12 13  1  0  0  0  0
 12 15  1  0  0  0  0
 13 14  1  0  0  0  0
 14 36  1  0  0  0  0
 14 37  1  0  0  0  0
 14 38  1  0  0  0  0
 15 16  1  0  0  0  0
 15 18  2  0  0  0  0
 16 17  1  0  0  0  0
 17 39  1  0  0  0  0
 17 40  1  0  0  0  0
 17 41  1  0  0  0  0
 18 42  1  0  0  0  0
 19 20  1  0  0  0  0
 19 43  1  0  0  0  0
 20 21  1  0  0  0  0
 20 22  1  0  0  0  0
 20 44  1  1  0  0  0
 21 26  1  0  0  0  0
 21 45  1  0  0  0  0
 21 46  1  0  0  0  0
 22 23  1  0  0  0  0
 22 47  1  0  0  0  0
 22 48  1  0  0  0  0
 23 24  1  0  0  0  0
 23 49  1  0  0  0  0
 23 50  1  0  0  0  0
 24 25  1  0  0  0  0
 24 26  1  0  0  0  0
 24 58  1  6  0  0  0
 25 51  1  0  0  0  0
 25 52  1  0  0  0  0
 25 53  1  0  0  0  0
 26 54  1  0  0  0  0
 26 55  1  0  0  0  0
 27 56  1  0  0  0  0
 27 57  1  0  0  0  0
M  CHG  1  24   1
M  END
$$$$
