7LU
 OpenBabel04161910053D

 29 31  0  0  0  0  0  0  0  0999 V2000
   -0.9977    3.1424   21.1113 Cl  0  0  0  0  0  0  0  0  0  0  0  0
   -0.5320    1.7270   21.9755 C   0  0  0  0  0  0  0  0  0  0  0  0
   -0.5087    1.7436   23.3567 C   0  0  0  0  0  0  0  0  0  0  0  0
   -0.1865    0.5649   21.2866 C   0  0  0  0  0  0  0  0  0  0  0  0
    0.1957   -0.6441   21.9210 C   0  0  0  0  0  0  0  0  0  0  0  0
    0.4930   -1.6520   21.2010 O   0  0  0  0  0  0  0  0  0  0  0  0
    0.2017   -0.6010   23.3499 C   0  0  0  0  0  0  0  0  0  0  0  0
    0.5594   -1.7837   24.2125 C   0  0  0  0  0  0  0  0  0  0  0  0
    0.8935   -2.9094   23.8595 O   0  0  0  0  0  0  0  0  0  0  0  0
   -0.1468    0.5820   24.0368 C   0  0  0  0  0  0  0  0  0  0  0  0
   -0.1756    0.7057   25.4045 O   0  3  0  0  0  0  0  0  0  0  0  0
    0.1172   -0.3951   26.1774 C   0  0  0  0  0  0  0  0  0  0  0  0
    0.4798   -1.5770   25.6725 C   0  0  0  0  0  0  0  0  0  0  0  0
   -0.0676   -0.1830   27.6272 C   0  0  0  0  0  0  0  0  0  0  0  0
   -1.0885    0.6723   28.0742 C   0  0  0  0  0  0  0  0  0  0  0  0
   -1.2972    0.8542   29.4329 C   0  0  0  0  0  0  0  0  0  0  0  0
   -2.3069    1.6751   29.8469 O   0  0  0  0  0  0  0  0  0  0  0  0
   -0.4988    0.2048   30.3689 C   0  0  0  0  0  0  0  0  0  0  0  0
   -0.7625    0.4173   31.6938 O   0  0  0  0  0  0  0  0  0  0  0  0
    0.5285   -0.6325   29.9532 C   0  0  0  0  0  0  0  0  0  0  0  0
    0.7449   -0.8199   28.5841 C   0  0  0  0  0  0  0  0  0  0  0  0
   -0.7717    2.6393   23.9056 H   0  0  0  0  0  0  0  0  0  0  0  0
   -0.2099    0.5744   20.1957 H   0  0  0  0  0  0  0  0  0  0  0  0
    0.6936   -2.4532   26.2692 H   0  0  0  0  0  0  0  0  0  0  0  0
   -1.7350    1.1862   27.3665 H   0  0  0  0  0  0  0  0  0  0  0  0
   -2.2708    1.6306   30.8229 H   0  0  0  0  0  0  0  0  0  0  0  0
   -0.1310   -0.1139   32.2076 H   0  0  0  0  0  0  0  0  0  0  0  0
    1.1669   -1.1465   30.6644 H   0  0  0  0  0  0  0  0  0  0  0  0
    1.5583   -1.4712   28.2689 H   0  0  0  0  0  0  0  0  0  0  0  0
  1  2  1  0  0  0  0
  2  3  2  0  0  0  0
  2  4  1  0  0  0  0
  3 10  1  0  0  0  0
  3 22  1  0  0  0  0
  4  5  2  0  0  0  0
  4 23  1  0  0  0  0
  5  6  1  0  0  0  0
  5  7  1  0  0  0  0
  7  8  1  0  0  0  0
  7 10  2  0  0  0  0
  8  9  2  0  0  0  0
  8 13  1  0  0  0  0
 10 11  1  0  0  0  0
 11 12  1  0  0  0  0
 12 13  2  0  0  0  0
 12 14  1  0  0  0  0
 13 24  1  0  0  0  0
 14 15  2  0  0  0  0
 14 21  1  0  0  0  0
 15 16  1  0  0  0  0
 15 25  1  0  0  0  0
 16 17  1  0  0  0  0
 16 18  2  0  0  0  0
 17 26  1  0  0  0  0
 18 19  1  0  0  0  0
 18 20  1  0  0  0  0
 19 27  1  0  0  0  0
 20 21  2  0  0  0  0
 20 28  1  0  0  0  0
 21 29  1  0  0  0  0
M  CHG  1  11   1
M  END
$$$$
