7MW
 OpenBabel04161911153D

 24 24  0  0  1  0  0  0  0  0999 V2000
 -105.3946   37.0348   25.5320 C   0  0  0  0  0  0  0  0  0  0  0  0
 -105.4363   38.0885   26.6261 C   0  0  0  0  0  0  0  0  0  0  0  0
 -106.8311   38.6717   26.8054 C   0  0  0  0  0  0  0  0  0  0  0  0
 -107.8385   38.0105   26.5412 O   0  0  0  0  0  0  0  0  0  0  0  0
 -106.9578   40.0267   27.3600 C   0  0  2  0  0  0  0  0  0  0  0  0
 -105.9383   40.8848   27.7046 C   0  0  0  0  0  0  0  0  0  0  0  0
 -106.4825   42.0474   28.2004 N   0  3  0  0  0  0  0  0  0  0  0  0
 -107.8624   41.9701   28.1853 C   0  0  2  0  0  0  0  0  0  0  0  0
 -108.1693   40.7199   27.6651 C   0  0  0  0  0  0  0  0  0  0  0  0
 -108.7942   43.0110   28.5646 C   0  0  0  0  0  0  0  0  0  0  0  0
 -109.9760   43.0240   28.2375 O   0  0  0  0  0  0  0  0  0  0  0  0
 -108.1907   44.0021   29.2838 O   0  0  0  0  0  0  0  0  0  0  0  0
 -109.0229   45.1660   29.4209 C   0  0  0  0  0  0  0  0  0  0  0  0
 -104.3789   36.6425   25.4162 H   0  0  0  0  0  0  0  0  0  0  0  0
 -105.7095   37.4629   24.5744 H   0  0  0  0  0  0  0  0  0  0  0  0
 -106.0604   36.1968   25.7632 H   0  0  0  0  0  0  0  0  0  0  0  0
 -104.7261   38.8764   26.3557 H   0  0  0  0  0  0  0  0  0  0  0  0
 -105.1182   37.6507   27.5779 H   0  0  0  0  0  0  0  0  0  0  0  0
 -104.8642   40.7782   27.6344 H   0  0  0  0  0  0  0  0  0  0  0  0
 -105.9519   42.8584   28.4929 H   0  0  0  0  0  0  0  0  0  0  0  0
 -109.1700   40.3385   27.5176 H   0  0  0  0  0  0  0  0  0  0  0  0
 -108.5641   45.8658   30.1275 H   0  0  0  0  0  0  0  0  0  0  0  0
 -110.0300   44.9288   29.7901 H   0  0  0  0  0  0  0  0  0  0  0  0
 -109.0879   45.6589   28.4469 H   0  0  0  0  0  0  0  0  0  0  0  0
  1  2  1  0  0  0  0
  1 14  1  0  0  0  0
  1 15  1  0  0  0  0
  1 16  1  0  0  0  0
  2  3  1  0  0  0  0
  2 17  1  0  0  0  0
  2 18  1  0  0  0  0
  3  4  2  0  0  0  0
  5  3  1  1  0  0  0
  5  6  1  0  0  0  0
  5  9  1  0  0  0  0
  6  7  1  0  0  0  0
  6 19  1  0  0  0  0
  7  8  1  0  0  0  0
  7 20  1  0  0  0  0
  8  9  1  0  0  0  0
  8 10  1  6  0  0  0
  9 21  1  0  0  0  0
 10 11  2  0  0  0  0
 10 12  1  0  0  0  0
 12 13  1  0  0  0  0
 13 22  1  0  0  0  0
 13 23  1  0  0  0  0
 13 24  1  0  0  0  0
M  CHG  1   7   1
M  END
$$$$
