7MW
 OpenBabel04161911143D

 24 24  0  0  1  0  0  0  0  0999 V2000
  -31.7116   -4.3274    1.2153 C   0  0  0  0  0  0  0  0  0  0  0  0
  -30.4069   -4.9143    1.7309 C   0  0  0  0  0  0  0  0  0  0  0  0
  -29.8681   -6.0389    0.8467 C   0  0  0  0  0  0  0  0  0  0  0  0
  -30.5452   -6.5213   -0.0591 O   0  0  0  0  0  0  0  0  0  0  0  0
  -28.5196   -6.5552    1.1247 C   0  0  2  0  0  0  0  0  0  0  0  0
  -27.6251   -6.0358    2.0383 C   0  0  0  0  0  0  0  0  0  0  0  0
  -26.4705   -6.7676    1.9780 N   0  3  0  0  0  0  0  0  0  0  0  0
  -26.5936   -7.8057    1.0784 C   0  0  1  0  0  0  0  0  0  0  0  0
  -27.8605   -7.6808    0.5198 C   0  0  0  0  0  0  0  0  0  0  0  0
  -25.5019   -8.7343    0.8965 C   0  0  0  0  0  0  0  0  0  0  0  0
  -24.3678   -8.5152    1.3091 O   0  0  0  0  0  0  0  0  0  0  0  0
  -25.9011   -9.9043    0.3266 O   0  0  0  0  0  0  0  0  0  0  0  0
  -24.8966  -10.9280    0.4008 C   0  0  0  0  0  0  0  0  0  0  0  0
  -32.0614   -3.5311    1.8796 H   0  0  0  0  0  0  0  0  0  0  0  0
  -32.4951   -5.0904    1.1578 H   0  0  0  0  0  0  0  0  0  0  0  0
  -31.5806   -3.9028    0.2147 H   0  0  0  0  0  0  0  0  0  0  0  0
  -30.5647   -5.3157    2.7386 H   0  0  0  0  0  0  0  0  0  0  0  0
  -29.6670   -4.1087    1.7870 H   0  0  0  0  0  0  0  0  0  0  0  0
  -27.6971   -5.1955    2.7178 H   0  0  0  0  0  0  0  0  0  0  0  0
  -25.6389   -6.6059    2.5309 H   0  0  0  0  0  0  0  0  0  0  0  0
  -28.2823   -8.3195   -0.2469 H   0  0  0  0  0  0  0  0  0  0  0  0
  -25.2786  -11.8374   -0.0706 H   0  0  0  0  0  0  0  0  0  0  0  0
  -24.6757  -11.1578    1.4490 H   0  0  0  0  0  0  0  0  0  0  0  0
  -23.9823  -10.6270   -0.1213 H   0  0  0  0  0  0  0  0  0  0  0  0
  1  2  1  0  0  0  0
  1 14  1  0  0  0  0
  1 15  1  0  0  0  0
  1 16  1  0  0  0  0
  2  3  1  0  0  0  0
  2 17  1  0  0  0  0
  2 18  1  0  0  0  0
  3  4  2  0  0  0  0
  5  3  1  6  0  0  0
  5  6  1  0  0  0  0
  5  9  1  0  0  0  0
  6  7  1  0  0  0  0
  6 19  1  0  0  0  0
  7  8  1  0  0  0  0
  7 20  1  0  0  0  0
  8  9  1  0  0  0  0
  8 10  1  6  0  0  0
  9 21  1  0  0  0  0
 10 11  2  0  0  0  0
 10 12  1  0  0  0  0
 12 13  1  0  0  0  0
 13 22  1  0  0  0  0
 13 23  1  0  0  0  0
 13 24  1  0  0  0  0
M  CHG  1   7   1
M  END
$$$$
