7O8
 OpenBabel04161911153D

 30 31  0  0  1  0  0  0  0  0999 V2000
   -1.3511   11.5038   13.7147 Cl  0  0  0  0  0  0  0  0  0  0  0  0
   -1.7869    9.8510   13.5445 C   0  0  0  0  0  0  0  0  0  0  0  0
   -2.3736    9.3204   12.3876 C   0  0  0  0  0  0  0  0  0  0  0  0
   -2.7425    7.9786   12.3823 C   0  0  0  0  0  0  0  0  0  0  0  0
   -1.5730    9.0763   14.6819 C   0  0  0  0  0  0  0  0  0  0  0  0
   -2.0125    7.7777   14.7107 C   0  0  0  0  0  0  0  0  0  0  0  0
   -2.5512    7.2249   13.5442 C   0  0  0  0  0  0  0  0  0  0  0  0
   -2.9766    5.8165   13.5796 C   0  0  0  0  0  0  0  0  0  0  0  0
   -4.7731    5.6855   13.7093 S   0  0  0  0  0  0  0  0  0  0  0  0
   -4.8081    4.2300   14.5954 C   0  0  0  0  0  0  0  0  0  0  0  0
   -3.7442    3.3943   14.7163 C   0  0  0  0  0  0  0  0  0  0  0  0
   -3.8867    2.2418   15.6403 C   0  0  0  0  0  0  0  0  0  0  0  0
   -6.1696    3.7023   15.5029 S   0  0  0  0  0  0  0  0  0  0  0  0
   -5.3852    2.0646   15.7024 C   0  0  2  0  0  0  0  0  0  0  0  0
   -6.0443    0.9260   16.8821 S   0  0  0  0  0  0  0  0  0  0  0  0
   -5.3605    1.0271   18.1117 O   0  0  0  0  0  0  0  0  0  0  0  0
   -7.4872    0.9608   16.7565 O   0  0  0  0  0  0  0  0  0  0  0  0
   -5.5632   -0.5240   16.1953 N   0  0  0  0  0  0  0  0  0  0  0  0
   -2.5705    9.9201   11.5055 H   0  0  0  0  0  0  0  0  0  0  0  0
   -3.2301    7.5104   11.5251 H   0  0  0  0  0  0  0  0  0  0  0  0
   -1.1084    9.5094   15.5584 H   0  0  0  0  0  0  0  0  0  0  0  0
   -1.9740    7.2298   15.6510 H   0  0  0  0  0  0  0  0  0  0  0  0
   -2.4751    5.3955   14.4623 H   0  0  0  0  0  0  0  0  0  0  0  0
   -2.6173    5.2643   12.7039 H   0  0  0  0  0  0  0  0  0  0  0  0
   -2.7997    3.5091   14.2202 H   0  0  0  0  0  0  0  0  0  0  0  0
   -3.3500    2.4469   16.5810 H   0  0  0  0  0  0  0  0  0  0  0  0
   -3.4179    1.3824   15.1468 H   0  0  0  0  0  0  0  0  0  0  0  0
   -5.9902   -1.3613   16.5777 H   0  0  0  0  0  0  0  0  0  0  0  0
   -5.1276   -0.5405   15.2784 H   0  0  0  0  0  0  0  0  0  0  0  0
   -5.6396    1.5854   14.7527 H   0  0  0  0  0  0  0  0  0  0  0  0
  1  2  1  0  0  0  0
  2  3  2  0  0  0  0
  2  5  1  0  0  0  0
  3  4  1  0  0  0  0
  3 19  1  0  0  0  0
  4  7  2  0  0  0  0
  4 20  1  0  0  0  0
  5  6  2  0  0  0  0
  5 21  1  0  0  0  0
  6  7  1  0  0  0  0
  6 22  1  0  0  0  0
  7  8  1  0  0  0  0
  8  9  1  0  0  0  0
  8 23  1  0  0  0  0
  8 24  1  0  0  0  0
  9 10  1  0  0  0  0
 10 11  2  0  0  0  0
 10 13  1  0  0  0  0
 11 12  1  0  0  0  0
 11 25  1  0  0  0  0
 12 14  1  0  0  0  0
 12 26  1  0  0  0  0
 12 27  1  0  0  0  0
 13 14  1  0  0  0  0
 14 15  1  0  0  0  0
 14 30  1  6  0  0  0
 15 16  2  0  0  0  0
 15 17  2  0  0  0  0
 15 18  1  0  0  0  0
 18 28  1  0  0  0  0
 18 29  1  0  0  0  0
M  END
$$$$
