7PJ
 OpenBabel04161911573D

 22 23  0  0  0  0  0  0  0  0999 V2000
    8.9716    0.0213   24.3518 C   0  0  0  0  0  0  0  0  0  0  0  0
    9.2840   -0.3761   25.6274 C   0  0  0  0  0  0  0  0  0  0  0  0
    9.8348    0.9666   23.6811 C   0  0  0  0  0  0  0  0  0  0  0  0
   11.1116    0.8966   25.7391 C   0  0  0  0  0  0  0  0  0  0  0  0
    7.4609   -1.3613   24.9538 C   0  0  0  0  0  0  0  0  0  0  0  0
    5.7468   -3.1255   22.2625 C   0  0  0  0  0  0  0  0  0  0  0  0
    5.2688   -2.1451   23.3639 C   0  0  0  0  0  0  0  0  0  0  0  0
   10.3393    0.0398   26.3515 N   0  0  0  0  0  0  0  0  0  0  0  0
    8.3207   -1.2707   26.0256 N   0  3  0  0  0  0  0  0  0  0  0  0
   10.9087    1.3654   24.4558 N   0  3  0  0  0  0  0  0  0  0  0  0
    7.8315   -0.5933   23.9517 N   0  0  0  0  0  0  0  0  0  0  0  0
   12.1926    1.3729   26.4021 N   0  0  0  0  0  0  0  0  0  0  0  0
    5.0144   -3.0672   21.2192 O   0  0  0  0  0  0  0  0  0  0  0  0
    6.7537   -3.8636   22.4428 O   0  0  0  0  0  0  0  0  0  0  0  0
    9.6593    1.4151   22.5382 O   0  0  0  0  0  0  0  0  0  0  0  0
    6.0604   -2.3838   24.9947 S   0  0  0  0  0  0  0  0  0  0  0  0
    4.1798   -2.2872   23.4890 H   0  0  0  0  0  0  0  0  0  0  0  0
    5.4470   -1.1244   23.0182 H   0  0  0  0  0  0  0  0  0  0  0  0
    8.2757   -1.7771   26.8747 H   0  0  0  0  0  0  0  0  0  0  0  0
   11.5509    2.0304   24.0387 H   0  0  0  0  0  0  0  0  0  0  0  0
   12.3583    1.0370   27.3499 H   0  0  0  0  0  0  0  0  0  0  0  0
   12.8342    2.0387   25.9979 H   0  0  0  0  0  0  0  0  0  0  0  0
  1  2  2  0  0  0  0
  1  3  1  0  0  0  0
  1 11  1  0  0  0  0
  2  8  1  0  0  0  0
  2  9  1  0  0  0  0
  3 10  1  0  0  0  0
  3 15  2  0  0  0  0
  4  8  2  0  0  0  0
  4 10  1  0  0  0  0
  4 12  1  0  0  0  0
  5  9  2  0  0  0  0
  5 11  1  0  0  0  0
  5 16  1  0  0  0  0
  6  7  1  0  0  0  0
  6 13  2  0  0  0  0
  6 14  1  0  0  0  0
  7 16  1  0  0  0  0
  7 17  1  0  0  0  0
  7 18  1  0  0  0  0
  9 19  1  0  0  0  0
 10 20  1  0  0  0  0
 12 21  1  0  0  0  0
 12 22  1  0  0  0  0
M  CHG  2   9   1  10   1
M  END
$$$$
