7VF
 OpenBabel04161912183D

 32 34  0  0  0  0  0  0  0  0999 V2000
   57.5321  -26.8133   30.9885 O   0  0  0  0  0  0  0  0  0  0  0  0
   58.4804  -27.4793   31.7122 C   0  0  0  0  0  0  0  0  0  0  0  0
   59.1809  -28.5227   31.1028 C   0  0  0  0  0  0  0  0  0  0  0  0
   58.9084  -28.8796   29.6698 C   0  0  0  0  0  0  0  0  0  0  0  0
   60.1332  -29.2346   31.8577 C   0  0  0  0  0  0  0  0  0  0  0  0
   58.7392  -27.1185   33.0283 C   0  0  0  0  0  0  0  0  0  0  0  0
   59.7144  -27.8095   33.7514 C   0  0  0  0  0  0  0  0  0  0  0  0
   60.4070  -28.9035   33.1981 C   0  0  0  0  0  0  0  0  0  0  0  0
   61.3741  -29.6856   34.0145 C   0  0  0  0  0  0  0  0  0  0  0  0
   62.6772  -29.8746   33.5391 C   0  0  0  0  0  0  0  0  0  0  0  0
   63.5828  -30.5769   34.3167 C   0  0  0  0  0  0  0  0  0  0  0  0
   63.2919  -31.0916   35.5303 N   0  0  0  0  0  0  0  0  0  0  0  0
   61.0365  -30.2452   35.2821 C   0  0  0  0  0  0  0  0  0  0  0  0
   59.7448  -30.1680   35.8583 C   0  0  0  0  0  0  0  0  0  0  0  0
   59.4686  -30.6890   37.1135 C   0  0  0  0  0  0  0  0  0  0  0  0
   60.4731  -31.3284   37.8117 C   0  0  0  0  0  0  0  0  0  0  0  0
   60.1563  -31.8254   39.0414 O   0  0  0  0  0  0  0  0  0  0  0  0
   61.7471  -31.4560   37.2600 C   0  0  0  0  0  0  0  0  0  0  0  0
   62.0493  -30.9294   36.0072 C   0  0  0  0  0  0  0  0  0  0  0  0
   57.1203  -26.1403   31.5545 H   0  0  0  0  0  0  0  0  0  0  0  0
   59.5612  -29.6863   29.3218 H   0  0  0  0  0  0  0  0  0  0  0  0
   59.0847  -28.0106   29.0266 H   0  0  0  0  0  0  0  0  0  0  0  0
   57.8710  -29.2092   29.5507 H   0  0  0  0  0  0  0  0  0  0  0  0
   60.6553  -30.0701   31.3950 H   0  0  0  0  0  0  0  0  0  0  0  0
   58.1964  -26.3122   33.5107 H   0  0  0  0  0  0  0  0  0  0  0  0
   59.9089  -27.5039   34.7789 H   0  0  0  0  0  0  0  0  0  0  0  0
   62.9954  -29.4692   32.5835 H   0  0  0  0  0  0  0  0  0  0  0  0
   64.5993  -30.7428   33.9761 H   0  0  0  0  0  0  0  0  0  0  0  0
   58.9249  -29.6937   35.3273 H   0  0  0  0  0  0  0  0  0  0  0  0
   58.4755  -30.5935   37.5404 H   0  0  0  0  0  0  0  0  0  0  0  0
   60.9384  -32.2591   39.4192 H   0  0  0  0  0  0  0  0  0  0  0  0
   62.5333  -31.9712   37.8052 H   0  0  0  0  0  0  0  0  0  0  0  0
  1  2  1  0  0  0  0
  1 20  1  0  0  0  0
  2  3  2  0  0  0  0
  2  6  1  0  0  0  0
  3  4  1  0  0  0  0
  3  5  1  0  0  0  0
  4 21  1  0  0  0  0
  4 22  1  0  0  0  0
  4 23  1  0  0  0  0
  5  8  2  0  0  0  0
  5 24  1  0  0  0  0
  6  7  2  0  0  0  0
  6 25  1  0  0  0  0
  7  8  1  0  0  0  0
  7 26  1  0  0  0  0
  8  9  1  0  0  0  0
  9 10  2  0  0  0  0
  9 13  1  0  0  0  0
 10 11  1  0  0  0  0
 10 27  1  0  0  0  0
 11 12  2  0  0  0  0
 11 28  1  0  0  0  0
 12 19  1  0  0  0  0
 13 14  2  0  0  0  0
 13 19  1  0  0  0  0
 14 15  1  0  0  0  0
 14 29  1  0  0  0  0
 15 16  2  0  0  0  0
 15 30  1  0  0  0  0
 16 17  1  0  0  0  0
 16 18  1  0  0  0  0
 17 31  1  0  0  0  0
 18 19  2  0  0  0  0
 18 32  1  0  0  0  0
M  END
$$$$
