82J
 OpenBabel04161911593D

 78 81  0  0  1  0  0  0  0  0999 V2000
    3.5964   35.7081   24.3526 C   0  0  0  0  0  0  0  0  0  0  0  0
    5.6966   39.8340   22.1926 C   0  0  0  0  0  0  0  0  0  0  0  0
    6.7198   40.2452   23.2317 C   0  0  0  0  0  0  0  0  0  0  0  0
    5.8487   40.0568   20.8107 C   0  0  0  0  0  0  0  0  0  0  0  0
    4.8353   39.6621   19.9238 C   0  0  0  0  0  0  0  0  0  0  0  0
    3.6847   39.0243   20.3908 C   0  0  0  0  0  0  0  0  0  0  0  0
    3.5067   38.8104   21.7513 C   0  0  0  0  0  0  0  0  0  0  0  0
    4.5080   39.2088   22.6303 C   0  0  0  0  0  0  0  0  0  0  0  0
    3.2508   36.6348   26.5529 C   0  0  0  0  0  0  0  0  0  0  0  0
    2.7244   36.0179   25.4120 C   0  0  0  0  0  0  0  0  0  0  0  0
    3.3079   33.5320   23.2049 C   0  0  0  0  0  0  0  0  0  0  0  0
    9.5471   33.7612   28.4635 C   0  0  0  0  0  0  0  0  0  0  0  0
    8.7782   34.8681   28.8190 C   0  0  0  0  0  0  0  0  0  0  0  0
    8.2001   35.6418   27.8079 C   0  0  0  0  0  0  0  0  0  0  0  0
    8.3958   35.3425   26.4551 C   0  0  0  0  0  0  0  0  0  0  0  0
    9.1601   34.2202   26.1274 C   0  0  0  0  0  0  0  0  0  0  0  0
    9.7362   33.4346   27.1213 C   0  0  0  0  0  0  0  0  0  0  0  0
    7.8514   36.0799   25.4366 N   0  0  0  0  0  0  0  0  0  0  0  0
    6.8993   37.1819   25.5877 C   0  0  1  0  0  0  0  0  0  0  0  0
    7.0934   38.1481   24.4007 C   0  0  0  0  0  0  0  0  0  0  0  0
    4.6051   36.9577   26.6366 C   0  0  0  0  0  0  0  0  0  0  0  0
    4.9550   36.0317   24.4557 C   0  0  0  0  0  0  0  0  0  0  0  0
    7.5996   37.7061   23.3518 O   0  0  0  0  0  0  0  0  0  0  0  0
    6.6628   39.4558   24.4660 N   0  0  0  0  0  0  0  0  0  0  0  0
    2.3338   38.1799   22.1925 N   0  0  0  0  0  0  0  0  0  0  0  0
    1.2330   35.7661   25.3579 C   0  0  0  0  0  0  0  0  0  0  0  0
    1.7980   38.2300   23.4487 C   0  0  0  0  0  0  0  0  0  0  0  0
    0.7698   37.3383   23.5542 O   0  0  0  0  0  0  0  0  0  0  0  0
    2.1726   38.9484   24.3723 O   0  0  0  0  0  0  0  0  0  0  0  0
    0.4147   36.9818   24.9060 C   0  0  0  0  0  0  0  0  0  0  0  0
    3.1552   35.0256   23.0903 C   0  0  0  0  0  0  0  0  0  0  0  0
    8.5182   35.2722   30.2323 C   0  0  0  0  0  0  0  0  0  0  0  0
    9.1422   34.5356   31.2160 N   0  0  0  0  0  0  0  0  0  0  0  0
    7.7917   36.1967   30.5086 O   0  0  0  0  0  0  0  0  0  0  0  0
    6.1424   40.1008   25.6635 C   0  0  0  0  0  0  0  0  0  0  0  0
    7.2767   40.8544   20.0582 S   0  0  0  0  0  0  0  0  0  0  0  0
    7.9643   41.6157   21.0713 O   0  0  0  0  0  0  0  0  0  0  0  0
    8.3225   39.4954   19.4753 C   0  0  0  0  0  0  0  0  0  0  0  0
    9.0404   38.7413   20.5797 C   0  0  0  0  0  0  0  0  0  0  0  0
    9.3199   40.0422   18.4606 C   0  0  0  0  0  0  0  0  0  0  0  0
    6.7633   41.5603   18.8877 O   0  0  0  0  0  0  0  0  0  0  0  0
    5.4684   36.6851   25.5762 C   0  0  0  0  0  0  0  0  0  0  0  0
    6.5644   41.2910   23.4911 H   0  0  0  0  0  0  0  0  0  0  0  0
    7.7204   40.1099   22.8169 H   0  0  0  0  0  0  0  0  0  0  0  0
    4.9523   39.8480   18.8557 H   0  0  0  0  0  0  0  0  0  0  0  0
    2.9189   38.7321   19.6787 H   0  0  0  0  0  0  0  0  0  0  0  0
    4.3875   38.9971   23.6881 H   0  0  0  0  0  0  0  0  0  0  0  0
    2.5983   36.8777   27.3878 H   0  0  0  0  0  0  0  0  0  0  0  0
    2.9784   33.0644   22.2732 H   0  0  0  0  0  0  0  0  0  0  0  0
    2.6966   33.1648   24.0334 H   0  0  0  0  0  0  0  0  0  0  0  0
    4.3569   33.2813   23.3869 H   0  0  0  0  0  0  0  0  0  0  0  0
   10.0076   33.1302   29.2110 H   0  0  0  0  0  0  0  0  0  0  0  0
    7.6061   36.5029   28.0944 H   0  0  0  0  0  0  0  0  0  0  0  0
    9.3176   33.9579   25.0817 H   0  0  0  0  0  0  0  0  0  0  0  0
   10.3335   32.5692   26.8464 H   0  0  0  0  0  0  0  0  0  0  0  0
    8.1612   35.8971   24.4838 H   0  0  0  0  0  0  0  0  0  0  0  0
    7.1074   37.7206   26.5108 H   0  0  0  0  0  0  0  0  0  0  0  0
    4.9800   37.4387   27.5356 H   0  0  0  0  0  0  0  0  0  0  0  0
    5.6279   35.7926   23.6340 H   0  0  0  0  0  0  0  0  0  0  0  0
    1.8204   37.6117   21.5311 H   0  0  0  0  0  0  0  0  0  0  0  0
    0.8920   35.4671   26.3577 H   0  0  0  0  0  0  0  0  0  0  0  0
    1.0330   34.9350   24.6777 H   0  0  0  0  0  0  0  0  0  0  0  0
    0.5665   37.8196   25.5941 H   0  0  0  0  0  0  0  0  0  0  0  0
   -0.6548   36.7212   24.9246 H   0  0  0  0  0  0  0  0  0  0  0  0
    3.7608   35.3698   22.2435 H   0  0  0  0  0  0  0  0  0  0  0  0
    2.1111   35.2510   22.8760 H   0  0  0  0  0  0  0  0  0  0  0  0
    8.9872   34.7841   32.1870 H   0  0  0  0  0  0  0  0  0  0  0  0
    9.7362   33.7551   31.0090 H   0  0  0  0  0  0  0  0  0  0  0  0
    6.1377   39.4241   26.5123 H   0  0  0  0  0  0  0  0  0  0  0  0
    5.1235   40.4487   25.4798 H   0  0  0  0  0  0  0  0  0  0  0  0
    6.7832   40.9543   25.9002 H   0  0  0  0  0  0  0  0  0  0  0  0
    7.6876   38.7762   18.9524 H   0  0  0  0  0  0  0  0  0  0  0  0
    9.6688   37.9429   20.1560 H   0  0  0  0  0  0  0  0  0  0  0  0
    8.3093   38.2708   21.2359 H   0  0  0  0  0  0  0  0  0  0  0  0
    9.6778   39.4046   21.1708 H   0  0  0  0  0  0  0  0  0  0  0  0
    9.9803   39.2468   18.0976 H   0  0  0  0  0  0  0  0  0  0  0  0
    9.9312   40.8366   18.9037 H   0  0  0  0  0  0  0  0  0  0  0  0
    8.7792   40.4581   17.6017 H   0  0  0  0  0  0  0  0  0  0  0  0
  1 10  2  0  0  0  0
  1 22  1  0  0  0  0
  1 31  1  0  0  0  0
  2  3  1  0  0  0  0
  2  4  2  0  0  0  0
  2  8  1  0  0  0  0
  3 24  1  0  0  0  0
  3 43  1  0  0  0  0
  3 44  1  0  0  0  0
  4  5  1  0  0  0  0
  4 36  1  0  0  0  0
  5  6  2  0  0  0  0
  5 45  1  0  0  0  0
  6  7  1  0  0  0  0
  6 46  1  0  0  0  0
  7  8  2  0  0  0  0
  7 25  1  0  0  0  0
  8 47  1  0  0  0  0
  9 10  1  0  0  0  0
  9 21  2  0  0  0  0
  9 48  1  0  0  0  0
 10 26  1  0  0  0  0
 11 31  1  0  0  0  0
 11 49  1  0  0  0  0
 11 50  1  0  0  0  0
 11 51  1  0  0  0  0
 12 13  2  0  0  0  0
 12 17  1  0  0  0  0
 12 52  1  0  0  0  0
 13 14  1  0  0  0  0
 13 32  1  0  0  0  0
 14 15  2  0  0  0  0
 14 53  1  0  0  0  0
 15 16  1  0  0  0  0
 15 18  1  0  0  0  0
 16 17  2  0  0  0  0
 16 54  1  0  0  0  0
 17 55  1  0  0  0  0
 18 19  1  0  0  0  0
 18 56  1  0  0  0  0
 19 20  1  0  0  0  0
 19 42  1  0  0  0  0
 19 57  1  1  0  0  0
 20 23  2  0  0  0  0
 20 24  1  0  0  0  0
 21 42  1  0  0  0  0
 21 58  1  0  0  0  0
 22 42  2  0  0  0  0
 22 59  1  0  0  0  0
 24 35  1  0  0  0  0
 25 27  1  0  0  0  0
 25 60  1  0  0  0  0
 26 30  1  0  0  0  0
 26 61  1  0  0  0  0
 26 62  1  0  0  0  0
 27 28  1  0  0  0  0
 27 29  2  0  0  0  0
 28 30  1  0  0  0  0
 30 63  1  0  0  0  0
 30 64  1  0  0  0  0
 31 65  1  0  0  0  0
 31 66  1  0  0  0  0
 32 33  1  0  0  0  0
 32 34  2  0  0  0  0
 33 67  1  0  0  0  0
 33 68  1  0  0  0  0
 35 69  1  0  0  0  0
 35 70  1  0  0  0  0
 35 71  1  0  0  0  0
 36 37  2  0  0  0  0
 36 38  1  0  0  0  0
 36 41  2  0  0  0  0
 38 39  1  0  0  0  0
 38 40  1  0  0  0  0
 38 72  1  0  0  0  0
 39 73  1  0  0  0  0
 39 74  1  0  0  0  0
 39 75  1  0  0  0  0
 40 76  1  0  0  0  0
 40 77  1  0  0  0  0
 40 78  1  0  0  0  0
M  END
$$$$
