86D
 OpenBabel04161912013D

 38 40  0  0  1  0  0  0  0  0999 V2000
   18.3068    1.9457   -8.7138 N   0  0  0  0  0  0  0  0  0  0  0  0
   18.8789    1.1728   -9.2828 C   0  0  0  0  0  0  0  0  0  0  0  0
   19.6092    0.1825   -9.9797 C   0  0  0  0  0  0  0  0  0  0  0  0
   20.8788    0.5043  -10.4327 C   0  0  0  0  0  0  0  0  0  0  0  0
   21.5872   -0.4719  -11.0902 C   0  0  0  0  0  0  0  0  0  0  0  0
   21.0317   -1.7426  -11.2908 C   0  0  0  0  0  0  0  0  0  0  0  0
   19.7421   -2.0338  -10.8251 C   0  0  0  0  0  0  0  0  0  0  0  0
   19.2097   -3.2488  -11.0184 F   0  0  0  0  0  0  0  0  0  0  0  0
   19.0216   -1.0713  -10.1540 C   0  0  0  0  0  0  0  0  0  0  0  0
   22.7950   -0.1253  -11.6113 O   0  0  0  0  0  0  0  0  0  0  0  0
   23.8948   -0.2588  -10.8095 C   0  0  0  0  0  0  0  0  0  0  0  0
   25.0839    0.0876  -11.4265 C   0  0  0  0  0  0  0  0  0  0  0  0
   25.2665    0.5932  -12.8379 C   0  0  0  0  0  0  0  0  0  0  0  0
   26.7642    0.3842  -13.0154 C   0  0  0  0  0  0  0  0  0  0  0  0
   27.2500    1.3471  -13.8429 F   0  0  0  0  0  0  0  0  0  0  0  0
   27.0868   -0.8087  -13.5816 F   0  0  0  0  0  0  0  0  0  0  0  0
   26.2703   -0.1017  -10.7334 C   0  0  0  0  0  0  0  0  0  0  0  0
   27.4091    0.3665  -11.6097 C   0  0  2  0  0  0  0  0  0  0  0  0
   27.7609    1.6731  -11.2028 O   0  0  0  0  0  0  0  0  0  0  0  0
   26.2141   -0.6268   -9.4237 C   0  0  0  0  0  0  0  0  0  0  0  0
   25.0177   -0.9338   -8.7835 C   0  0  0  0  0  0  0  0  0  0  0  0
   23.8509   -0.7274   -9.4848 C   0  0  0  0  0  0  0  0  0  0  0  0
   27.6716   -0.9928   -8.5433 S   0  0  0  0  0  0  0  0  0  0  0  0
   28.6316   -1.4052   -9.5421 O   0  0  0  0  0  0  0  0  0  0  0  0
   27.3916   -1.9269   -7.4657 O   0  0  0  0  0  0  0  0  0  0  0  0
   28.0886    0.5588   -7.8452 C   0  0  0  0  0  0  0  0  0  0  0  0
   27.3839    0.6146   -6.6909 F   0  0  0  0  0  0  0  0  0  0  0  0
   27.6093    1.5740   -8.6005 F   0  0  0  0  0  0  0  0  0  0  0  0
   21.3173    1.4892  -10.2704 H   0  0  0  0  0  0  0  0  0  0  0  0
   21.6026   -2.5068  -11.8031 H   0  0  0  0  0  0  0  0  0  0  0  0
   18.0269   -1.2759   -9.7585 H   0  0  0  0  0  0  0  0  0  0  0  0
   24.9874    1.6596  -12.9474 H   0  0  0  0  0  0  0  0  0  0  0  0
   24.6849    0.0108  -13.5675 H   0  0  0  0  0  0  0  0  0  0  0  0
   28.2574   -0.3283  -11.5807 H   0  0  0  0  0  0  0  0  0  0  0  0
   28.4803    1.9932  -11.7818 H   0  0  0  0  0  0  0  0  0  0  0  0
   25.0104   -1.3212   -7.7595 H   0  0  0  0  0  0  0  0  0  0  0  0
   22.8807   -0.9192   -9.0316 H   0  0  0  0  0  0  0  0  0  0  0  0
   29.1810    0.6297   -7.7000 H   0  0  0  0  0  0  0  0  0  0  0  0
  1  2  3  0  0  0  0
  2  3  1  0  0  0  0
  3  4  2  0  0  0  0
  3  9  1  0  0  0  0
  4  5  1  0  0  0  0
  4 29  1  0  0  0  0
  5  6  2  0  0  0  0
  5 10  1  0  0  0  0
  6  7  1  0  0  0  0
  6 30  1  0  0  0  0
  7  8  1  0  0  0  0
  7  9  2  0  0  0  0
  9 31  1  0  0  0  0
 10 11  1  0  0  0  0
 11 12  2  0  0  0  0
 11 22  1  0  0  0  0
 12 13  1  0  0  0  0
 12 17  1  0  0  0  0
 13 14  1  0  0  0  0
 13 32  1  0  0  0  0
 13 33  1  0  0  0  0
 14 15  1  0  0  0  0
 14 16  1  0  0  0  0
 14 18  1  0  0  0  0
 17 18  1  0  0  0  0
 17 20  2  0  0  0  0
 18 19  1  0  0  0  0
 18 34  1  1  0  0  0
 19 35  1  0  0  0  0
 20 21  1  0  0  0  0
 20 23  1  0  0  0  0
 21 22  2  0  0  0  0
 21 36  1  0  0  0  0
 22 37  1  0  0  0  0
 23 24  2  0  0  0  0
 23 25  2  0  0  0  0
 23 26  1  0  0  0  0
 26 27  1  0  0  0  0
 26 28  1  0  0  0  0
 26 38  1  0  0  0  0
M  END
$$$$
