86L
 OpenBabel04161911183D

 28 28  0  0  0  0  0  0  0  0999 V2000
    6.2667  142.7949  353.2811 Cl  0  0  0  0  0  0  0  0  0  0  0  0
    5.3363  141.3619  353.0817 C   0  0  0  0  0  0  0  0  0  0  0  0
    5.8995  140.1618  353.5383 C   0  0  0  0  0  0  0  0  0  0  0  0
    5.2161  138.9540  353.3775 C   0  0  0  0  0  0  0  0  0  0  0  0
    5.8533  137.6749  353.8517 C   0  0  0  0  0  0  0  0  0  0  0  0
    5.0202  137.0528  354.9093 N   0  3  0  0  0  0  0  0  0  0  0  0
    3.9506  138.9503  352.7861 C   0  0  0  0  0  0  0  0  0  0  0  0
    3.3813  140.1448  352.3312 C   0  0  0  0  0  0  0  0  0  0  0  0
    4.0872  141.3610  352.4769 C   0  0  0  0  0  0  0  0  0  0  0  0
    3.5722  142.4991  351.9096 O   0  0  0  0  0  0  0  0  0  0  0  0
    3.1465  143.4919  352.8647 C   0  0  0  0  0  0  0  0  0  0  0  0
    3.5201  144.8740  352.3403 C   0  0  0  0  0  0  0  0  0  0  0  0
    1.6405  143.3503  352.9576 C   0  0  0  0  0  0  0  0  0  0  0  0
    6.8814  140.1937  354.0046 H   0  0  0  0  0  0  0  0  0  0  0  0
    6.8362  137.8485  354.2877 H   0  0  0  0  0  0  0  0  0  0  0  0
    5.9382  136.9582  353.0317 H   0  0  0  0  0  0  0  0  0  0  0  0
    5.4360  136.1729  355.2442 H   0  0  0  0  0  0  0  0  0  0  0  0
    4.9164  137.6952  355.7030 H   0  0  0  0  0  0  0  0  0  0  0  0
    3.3942  138.0228  352.6512 H   0  0  0  0  0  0  0  0  0  0  0  0
    2.4132  140.1240  351.8425 H   0  0  0  0  0  0  0  0  0  0  0  0
    3.5797  143.3704  353.8670 H   0  0  0  0  0  0  0  0  0  0  0  0
    3.1555  145.6649  353.0056 H   0  0  0  0  0  0  0  0  0  0  0  0
    3.1074  145.0386  351.3403 H   0  0  0  0  0  0  0  0  0  0  0  0
    4.6062  144.9739  352.2586 H   0  0  0  0  0  0  0  0  0  0  0  0
    1.2129  144.0927  353.6323 H   0  0  0  0  0  0  0  0  0  0  0  0
    1.3966  142.3492  353.3224 H   0  0  0  0  0  0  0  0  0  0  0  0
    1.1915  143.4560  351.9646 H   0  0  0  0  0  0  0  0  0  0  0  0
    4.0832  136.8511  354.5519 H   0  0  0  0  0  0  0  0  0  0  0  0
  1  2  1  0  0  0  0
  2  3  2  0  0  0  0
  2  9  1  0  0  0  0
  3  4  1  0  0  0  0
  3 14  1  0  0  0  0
  4  5  1  0  0  0  0
  4  7  2  0  0  0  0
  5  6  1  0  0  0  0
  5 15  1  0  0  0  0
  5 16  1  0  0  0  0
  6 17  1  0  0  0  0
  6 18  1  0  0  0  0
  6 28  1  0  0  0  0
  7  8  1  0  0  0  0
  7 19  1  0  0  0  0
  8  9  2  0  0  0  0
  8 20  1  0  0  0  0
  9 10  1  0  0  0  0
 10 11  1  0  0  0  0
 11 12  1  0  0  0  0
 11 13  1  0  0  0  0
 11 21  1  0  0  0  0
 12 22  1  0  0  0  0
 12 23  1  0  0  0  0
 12 24  1  0  0  0  0
 13 25  1  0  0  0  0
 13 26  1  0  0  0  0
 13 27  1  0  0  0  0
M  CHG  1   6   1
M  END
$$$$
