88Z
 OpenBabel04161910393D

 81 86  0  0  0  0  0  0  0  0999 V2000
   15.1903   -4.9751   99.9522 C   0  0  0  0  0  0  0  0  0  0  0  0
   13.8206   -4.7632  100.1617 C   0  0  0  0  0  0  0  0  0  0  0  0
   13.2144   -5.1936  101.3465 C   0  0  0  0  0  0  0  0  0  0  0  0
   13.9355   -5.8323  102.3357 C   0  0  0  0  0  0  0  0  0  0  0  0
   15.3140   -6.0494  102.1350 C   0  0  0  0  0  0  0  0  0  0  0  0
   15.9223   -5.6216  100.9378 C   0  0  0  0  0  0  0  0  0  0  0  0
   13.2888   -6.2176  103.4452 N   0  0  0  0  0  0  0  0  0  0  0  0
   13.9924   -6.8555  104.4013 C   0  0  0  0  0  0  0  0  0  0  0  0
   15.3446   -7.1156  104.3116 C   0  0  0  0  0  0  0  0  0  0  0  0
   16.0142   -6.6897  103.1664 C   0  0  0  0  0  0  0  0  0  0  0  0
   15.6964   -4.5101   98.7654 O   0  0  0  0  0  0  0  0  0  0  0  0
   17.0669   -4.7827   98.5041 C   0  0  0  0  0  0  0  0  0  0  0  0
   13.1595   -4.1191   99.1501 O   0  0  0  0  0  0  0  0  0  0  0  0
   17.3653   -6.8978  102.9513 O   0  0  0  0  0  0  0  0  0  0  0  0
   18.1433   -7.1164  104.0529 C   0  0  0  0  0  0  0  0  0  0  0  0
   18.4383   -6.0733  104.9284 C   0  0  0  0  0  0  0  0  0  0  0  0
   19.1831   -6.3444  106.0700 C   0  0  0  0  0  0  0  0  0  0  0  0
   19.6786   -7.6356  106.2973 C   0  0  0  0  0  0  0  0  0  0  0  0
   19.4038   -8.6663  105.4002 C   0  0  0  0  0  0  0  0  0  0  0  0
   18.6359   -8.3986  104.2790 C   0  0  0  0  0  0  0  0  0  0  0  0
   18.3280   -9.3958  103.4381 F   0  0  0  0  0  0  0  0  0  0  0  0
   20.4268   -7.8209  107.4595 N   0  0  0  0  0  0  0  0  0  0  0  0
   11.7493   -4.0095   99.2630 C   0  0  0  0  0  0  0  0  0  0  0  0
   11.2734   -3.3929   97.9589 C   0  0  0  0  0  0  0  0  0  0  0  0
   11.7579   -1.9520   97.9187 C   0  0  0  0  0  0  0  0  0  0  0  0
   11.2672   -1.2628   96.6769 N   0  3  0  0  0  0  0  0  0  0  0  0
   12.1605   -1.5531   95.4703 C   0  0  0  0  0  0  0  0  0  0  0  0
   11.6348   -0.7833   94.2560 C   0  0  0  0  0  0  0  0  0  0  0  0
   11.5817    0.6228   94.5263 O   0  0  0  0  0  0  0  0  0  0  0  0
   10.6959    0.9165   95.6116 C   0  0  0  0  0  0  0  0  0  0  0  0
   11.1742    0.2429   96.8976 C   0  0  0  0  0  0  0  0  0  0  0  0
   21.3532   -8.8090  107.7041 C   0  0  0  0  0  0  0  0  0  0  0  0
   22.0245   -8.7625  109.0765 C   0  0  0  0  0  0  0  0  0  0  0  0
   21.5408   -7.7356  110.0814 C   0  0  0  0  0  0  0  0  0  0  0  0
   22.0821   -7.7955  111.3517 N   0  0  0  0  0  0  0  0  0  0  0  0
   21.6990   -9.6643  106.8945 O   0  0  0  0  0  0  0  0  0  0  0  0
   20.7482   -6.8653  109.7258 O   0  0  0  0  0  0  0  0  0  0  0  0
   21.7115   -6.8902  112.3529 C   0  0  0  0  0  0  0  0  0  0  0  0
   20.3683   -6.5544  112.5529 C   0  0  0  0  0  0  0  0  0  0  0  0
   20.0205   -5.6480  113.5515 C   0  0  0  0  0  0  0  0  0  0  0  0
   21.0219   -5.0764  114.3245 C   0  0  0  0  0  0  0  0  0  0  0  0
   22.3606   -5.4052  114.1321 C   0  0  0  0  0  0  0  0  0  0  0  0
   22.7095   -6.3341  113.1523 C   0  0  0  0  0  0  0  0  0  0  0  0
   20.6917   -4.1924  115.2733 F   0  0  0  0  0  0  0  0  0  0  0  0
   23.5109   -9.1520  109.0935 C   0  0  0  0  0  0  0  0  0  0  0  0
   22.4926  -10.1172  109.6248 C   0  0  0  0  0  0  0  0  0  0  0  0
   12.1560   -5.0434  101.5376 H   0  0  0  0  0  0  0  0  0  0  0  0
   16.9933   -5.8037  100.8083 H   0  0  0  0  0  0  0  0  0  0  0  0
   13.4246   -7.1654  105.2732 H   0  0  0  0  0  0  0  0  0  0  0  0
   15.8373   -7.6401  105.1202 H   0  0  0  0  0  0  0  0  0  0  0  0
   17.3068   -4.3674   97.5204 H   0  0  0  0  0  0  0  0  0  0  0  0
   17.2543   -5.8609   98.4675 H   0  0  0  0  0  0  0  0  0  0  0  0
   17.7108   -4.2898   99.2397 H   0  0  0  0  0  0  0  0  0  0  0  0
   18.0812   -5.0660  104.7364 H   0  0  0  0  0  0  0  0  0  0  0  0
   19.4071   -5.5356  106.7635 H   0  0  0  0  0  0  0  0  0  0  0  0
   19.7357   -9.6846  105.5717 H   0  0  0  0  0  0  0  0  0  0  0  0
   20.3496   -7.0887  108.1678 H   0  0  0  0  0  0  0  0  0  0  0  0
   11.4927   -3.3511  100.1034 H   0  0  0  0  0  0  0  0  0  0  0  0
   11.2841   -4.9922   99.3952 H   0  0  0  0  0  0  0  0  0  0  0  0
   10.1804   -3.4383   97.9005 H   0  0  0  0  0  0  0  0  0  0  0  0
   11.6835   -3.9568   97.1136 H   0  0  0  0  0  0  0  0  0  0  0  0
   12.8492   -1.8639   97.9404 H   0  0  0  0  0  0  0  0  0  0  0  0
   11.3459   -1.4049   98.7744 H   0  0  0  0  0  0  0  0  0  0  0  0
   12.1502   -2.6313   95.2932 H   0  0  0  0  0  0  0  0  0  0  0  0
   13.1689   -1.2194   95.7397 H   0  0  0  0  0  0  0  0  0  0  0  0
   10.6361   -1.1329   93.9715 H   0  0  0  0  0  0  0  0  0  0  0  0
   12.3029   -0.9376   93.4038 H   0  0  0  0  0  0  0  0  0  0  0  0
    9.6829    0.5902   95.3495 H   0  0  0  0  0  0  0  0  0  0  0  0
   10.6756    2.0013   95.7508 H   0  0  0  0  0  0  0  0  0  0  0  0
   12.1774    0.5792   97.1799 H   0  0  0  0  0  0  0  0  0  0  0  0
   10.4690    0.4107   97.7179 H   0  0  0  0  0  0  0  0  0  0  0  0
   22.9342   -8.3202  111.4873 H   0  0  0  0  0  0  0  0  0  0  0  0
   19.5843   -7.0136  111.9554 H   0  0  0  0  0  0  0  0  0  0  0  0
   18.9813   -5.3926  113.7222 H   0  0  0  0  0  0  0  0  0  0  0  0
   23.1235   -4.9256  114.7360 H   0  0  0  0  0  0  0  0  0  0  0  0
   23.7578   -6.5608  112.9774 H   0  0  0  0  0  0  0  0  0  0  0  0
   24.1880   -8.6577  109.7786 H   0  0  0  0  0  0  0  0  0  0  0  0
   23.9877   -9.3968  108.1475 H   0  0  0  0  0  0  0  0  0  0  0  0
   22.2629  -11.0012  109.0362 H   0  0  0  0  0  0  0  0  0  0  0  0
   22.4417  -10.3069  110.6898 H   0  0  0  0  0  0  0  0  0  0  0  0
   10.3168   -1.5976   96.4650 H   0  0  0  0  0  0  0  0  0  0  0  0
  1  2  2  0  0  0  0
  1  6  1  0  0  0  0
  1 11  1  0  0  0  0
  2  3  1  0  0  0  0
  2 13  1  0  0  0  0
  3  4  2  0  0  0  0
  3 47  1  0  0  0  0
  4  5  1  0  0  0  0
  4  7  1  0  0  0  0
  5  6  2  0  0  0  0
  5 10  1  0  0  0  0
  6 48  1  0  0  0  0
  7  8  2  0  0  0  0
  8  9  1  0  0  0  0
  8 49  1  0  0  0  0
  9 10  2  0  0  0  0
  9 50  1  0  0  0  0
 10 14  1  0  0  0  0
 11 12  1  0  0  0  0
 12 51  1  0  0  0  0
 12 52  1  0  0  0  0
 12 53  1  0  0  0  0
 13 23  1  0  0  0  0
 14 15  1  0  0  0  0
 15 16  2  0  0  0  0
 15 20  1  0  0  0  0
 16 17  1  0  0  0  0
 16 54  1  0  0  0  0
 17 18  2  0  0  0  0
 17 55  1  0  0  0  0
 18 19  1  0  0  0  0
 18 22  1  0  0  0  0
 19 20  2  0  0  0  0
 19 56  1  0  0  0  0
 20 21  1  0  0  0  0
 22 32  1  0  0  0  0
 22 57  1  0  0  0  0
 23 24  1  0  0  0  0
 23 58  1  0  0  0  0
 23 59  1  0  0  0  0
 24 25  1  0  0  0  0
 24 60  1  0  0  0  0
 24 61  1  0  0  0  0
 25 26  1  0  0  0  0
 25 62  1  0  0  0  0
 25 63  1  0  0  0  0
 26 27  1  0  0  0  0
 26 31  1  0  0  0  0
 26 81  1  0  0  0  0
 27 28  1  0  0  0  0
 27 64  1  0  0  0  0
 27 65  1  0  0  0  0
 28 29  1  0  0  0  0
 28 66  1  0  0  0  0
 28 67  1  0  0  0  0
 29 30  1  0  0  0  0
 30 31  1  0  0  0  0
 30 68  1  0  0  0  0
 30 69  1  0  0  0  0
 31 70  1  0  0  0  0
 31 71  1  0  0  0  0
 32 33  1  0  0  0  0
 32 36  2  0  0  0  0
 33 34  1  0  0  0  0
 33 45  1  0  0  0  0
 33 46  1  0  0  0  0
 34 35  1  0  0  0  0
 34 37  2  0  0  0  0
 35 38  1  0  0  0  0
 35 72  1  0  0  0  0
 38 39  2  0  0  0  0
 38 43  1  0  0  0  0
 39 40  1  0  0  0  0
 39 73  1  0  0  0  0
 40 41  2  0  0  0  0
 40 74  1  0  0  0  0
 41 42  1  0  0  0  0
 41 44  1  0  0  0  0
 42 43  2  0  0  0  0
 42 75  1  0  0  0  0
 43 76  1  0  0  0  0
 45 46  1  0  0  0  0
 45 77  1  0  0  0  0
 45 78  1  0  0  0  0
 46 79  1  0  0  0  0
 46 80  1  0  0  0  0
M  CHG  1  26   1
M  END
$$$$
