89G
 OpenBabel04161912003D

 39 41  0  0  0  0  0  0  0  0999 V2000
   13.3456   12.4443   -7.2489 C   0  0  0  0  0  0  0  0  0  0  0  0
   17.3663   12.3214   -3.3823 C   0  0  0  0  0  0  0  0  0  0  0  0
   16.0153   12.5994   -1.4010 C   0  0  0  0  0  0  0  0  0  0  0  0
   13.2980    9.9727   -5.9685 C   0  0  0  0  0  0  0  0  0  0  0  0
   13.7054   12.3541   -5.9041 C   0  0  0  0  0  0  0  0  0  0  0  0
   14.9516   11.9939   -2.0710 C   0  0  0  0  0  0  0  0  0  0  0  0
   11.5009   12.6633   -0.8820 C   0  0  0  0  0  0  0  0  0  0  0  0
   12.6306   12.8137   -1.5899 C   0  0  0  0  0  0  0  0  0  0  0  0
   12.2931    9.4853    0.9681 C   0  0  0  0  0  0  0  0  0  0  0  0
   12.9495   11.3026   -7.9447 C   0  0  0  0  0  0  0  0  0  0  0  0
   17.2221   12.7746   -2.0690 C   0  0  0  0  0  0  0  0  0  0  0  0
   12.9122   10.0683   -7.3039 C   0  0  0  0  0  0  0  0  0  0  0  0
   16.3023   11.7025   -4.0442 C   0  0  0  0  0  0  0  0  0  0  0  0
   13.7056   11.1109   -5.2748 C   0  0  0  0  0  0  0  0  0  0  0  0
   15.0764   11.5606   -3.3948 C   0  0  0  0  0  0  0  0  0  0  0  0
   13.6864   11.8081   -1.3471 C   0  0  0  0  0  0  0  0  0  0  0  0
   11.3242   11.5258    0.0405 C   0  0  0  0  0  0  0  0  0  0  0  0
   11.7248   14.5274   -2.8872 C   0  0  0  0  0  0  0  0  0  0  0  0
   13.5800   10.7874   -0.5460 N   0  0  0  0  0  0  0  0  0  0  0  0
   12.3883   10.6382    0.1147 N   0  3  0  0  0  0  0  0  0  0  0  0
   10.2813   11.4244    0.6736 O   0  0  0  0  0  0  0  0  0  0  0  0
   13.9950   10.9202   -3.9484 O   0  0  0  0  0  0  0  0  0  0  0  0
   12.8877   13.8136   -2.5113 O   0  0  0  0  0  0  0  0  0  0  0  0
   13.3690   13.4037   -7.7582 H   0  0  0  0  0  0  0  0  0  0  0  0
   18.3189   12.4457   -3.8885 H   0  0  0  0  0  0  0  0  0  0  0  0
   15.9061   12.9326   -0.3728 H   0  0  0  0  0  0  0  0  0  0  0  0
   13.2786    9.0114   -5.4660 H   0  0  0  0  0  0  0  0  0  0  0  0
   13.9810   13.2549   -5.3592 H   0  0  0  0  0  0  0  0  0  0  0  0
   10.6738   13.3497   -0.9456 H   0  0  0  0  0  0  0  0  0  0  0  0
   13.2060    8.8915    0.8942 H   0  0  0  0  0  0  0  0  0  0  0  0
   11.4341    8.8815    0.6604 H   0  0  0  0  0  0  0  0  0  0  0  0
   12.1498    9.8211    1.9982 H   0  0  0  0  0  0  0  0  0  0  0  0
   12.6642   11.3760   -8.9917 H   0  0  0  0  0  0  0  0  0  0  0  0
   18.0577   13.2584   -1.5674 H   0  0  0  0  0  0  0  0  0  0  0  0
   12.5874    9.1826   -7.8396 H   0  0  0  0  0  0  0  0  0  0  0  0
   16.4447   11.3323   -5.0562 H   0  0  0  0  0  0  0  0  0  0  0  0
   11.9834   15.3055   -3.6075 H   0  0  0  0  0  0  0  0  0  0  0  0
   11.2919   15.0140   -2.0078 H   0  0  0  0  0  0  0  0  0  0  0  0
   11.0086   13.8356   -3.3458 H   0  0  0  0  0  0  0  0  0  0  0  0
  1  5  2  0  0  0  0
  1 10  1  0  0  0  0
  1 24  1  0  0  0  0
  2 11  2  0  0  0  0
  2 13  1  0  0  0  0
  2 25  1  0  0  0  0
  3  6  2  0  0  0  0
  3 11  1  0  0  0  0
  3 26  1  0  0  0  0
  4 12  1  0  0  0  0
  4 14  2  0  0  0  0
  4 27  1  0  0  0  0
  5 14  1  0  0  0  0
  5 28  1  0  0  0  0
  6 15  1  0  0  0  0
  6 16  1  0  0  0  0
  7  8  2  0  0  0  0
  7 17  1  0  0  0  0
  7 29  1  0  0  0  0
  8 16  1  0  0  0  0
  8 23  1  0  0  0  0
  9 20  1  0  0  0  0
  9 30  1  0  0  0  0
  9 31  1  0  0  0  0
  9 32  1  0  0  0  0
 10 12  2  0  0  0  0
 10 33  1  0  0  0  0
 11 34  1  0  0  0  0
 12 35  1  0  0  0  0
 13 15  2  0  0  0  0
 13 36  1  0  0  0  0
 14 22  1  0  0  0  0
 15 22  1  0  0  0  0
 16 19  2  0  0  0  0
 17 20  1  0  0  0  0
 17 21  2  0  0  0  0
 18 23  1  0  0  0  0
 18 37  1  0  0  0  0
 18 38  1  0  0  0  0
 18 39  1  0  0  0  0
 19 20  1  0  0  0  0
M  CHG  1  20   1
M  END
$$$$
