89J
 OpenBabel04161912003D

 29 30  0  0  0  0  0  0  0  0999 V2000
  -15.6420   11.3647    2.6776 C   0  0  0  0  0  0  0  0  0  0  0  0
  -15.8021   13.2840    1.1912 C   0  0  0  0  0  0  0  0  0  0  0  0
  -15.0727   12.2116    1.7204 C   0  0  0  0  0  0  0  0  0  0  0  0
  -11.4895   12.6641    0.8324 C   0  0  0  0  0  0  0  0  0  0  0  0
  -13.7260   11.9264    1.1948 C   0  0  0  0  0  0  0  0  0  0  0  0
  -11.2887   11.4626    0.0184 C   0  0  0  0  0  0  0  0  0  0  0  0
  -17.6632   12.6832    2.6059 C   0  0  0  0  0  0  0  0  0  0  0  0
  -16.9371   11.6110    3.1266 C   0  0  0  0  0  0  0  0  0  0  0  0
  -17.0961   13.5210    1.6389 C   0  0  0  0  0  0  0  0  0  0  0  0
  -12.6447   12.9380    1.4553 C   0  0  0  0  0  0  0  0  0  0  0  0
  -12.2325    9.3605   -0.7986 C   0  0  0  0  0  0  0  0  0  0  0  0
  -11.8283   14.9316    2.7390 C   0  0  0  0  0  0  0  0  0  0  0  0
  -13.5804   10.8276    0.5240 N   0  0  0  0  0  0  0  0  0  0  0  0
  -12.3557   10.5868   -0.0364 N   0  3  0  0  0  0  0  0  0  0  0  0
  -12.8610   14.0365    2.2724 N   0  0  0  0  0  0  0  0  0  0  0  0
  -10.2040   11.2905   -0.5367 O   0  0  0  0  0  0  0  0  0  0  0  0
  -15.0809   10.5148    3.0590 H   0  0  0  0  0  0  0  0  0  0  0  0
  -15.3656   13.9148    0.4204 H   0  0  0  0  0  0  0  0  0  0  0  0
  -10.6269   13.3138    0.9085 H   0  0  0  0  0  0  0  0  0  0  0  0
  -18.6822   12.8628    2.9411 H   0  0  0  0  0  0  0  0  0  0  0  0
  -17.3919   10.9555    3.8664 H   0  0  0  0  0  0  0  0  0  0  0  0
  -17.6735   14.3406    1.2217 H   0  0  0  0  0  0  0  0  0  0  0  0
  -13.1519    8.7764   -0.7210 H   0  0  0  0  0  0  0  0  0  0  0  0
  -11.3932    8.7854   -0.4015 H   0  0  0  0  0  0  0  0  0  0  0  0
  -12.0374    9.6132   -1.8436 H   0  0  0  0  0  0  0  0  0  0  0  0
  -12.2505   15.6791    3.4130 H   0  0  0  0  0  0  0  0  0  0  0  0
  -11.3760   15.4506    1.8886 H   0  0  0  0  0  0  0  0  0  0  0  0
  -11.0470   14.3824    3.2759 H   0  0  0  0  0  0  0  0  0  0  0  0
  -13.7579   14.0896    2.7459 H   0  0  0  0  0  0  0  0  0  0  0  0
  1  3  2  0  0  0  0
  1  8  1  0  0  0  0
  1 17  1  0  0  0  0
  2  3  1  0  0  0  0
  2  9  2  0  0  0  0
  2 18  1  0  0  0  0
  3  5  1  0  0  0  0
  4  6  1  0  0  0  0
  4 10  2  0  0  0  0
  4 19  1  0  0  0  0
  5 10  1  0  0  0  0
  5 13  2  0  0  0  0
  6 14  1  0  0  0  0
  6 16  2  0  0  0  0
  7  8  2  0  0  0  0
  7  9  1  0  0  0  0
  7 20  1  0  0  0  0
  8 21  1  0  0  0  0
  9 22  1  0  0  0  0
 10 15  1  0  0  0  0
 11 14  1  0  0  0  0
 11 23  1  0  0  0  0
 11 24  1  0  0  0  0
 11 25  1  0  0  0  0
 12 15  1  0  0  0  0
 12 26  1  0  0  0  0
 12 27  1  0  0  0  0
 12 28  1  0  0  0  0
 13 14  1  0  0  0  0
 15 29  1  0  0  0  0
M  CHG  1  14   1
M  END
$$$$
