8DV
 OpenBabel04161912023D

 55 60  0  0  1  0  0  0  0  0999 V2000
   -3.1578  -11.8032   17.7141 C   0  0  2  0  0  0  0  0  0  0  0  0
   -3.8300  -12.2812   16.4229 C   0  0  0  0  0  0  0  0  0  0  0  0
   -2.7908  -10.6172   15.1167 C   0  0  0  0  0  0  0  0  0  0  0  0
    0.5967   -6.9760   19.5159 O   0  0  0  0  0  0  0  0  0  0  0  0
    0.1985   -4.5225   19.9790 O   0  0  0  0  0  0  0  0  0  0  0  0
   -4.3298   -9.7307   24.4961 C   0  0  0  0  0  0  0  0  0  0  0  0
   -5.2412  -10.7861   24.4545 C   0  0  0  0  0  0  0  0  0  0  0  0
   -5.5438  -11.3377   23.2042 C   0  0  2  0  0  0  0  0  0  0  0  0
   -6.4456  -12.5062   21.5094 C   0  0  0  0  0  0  0  0  0  0  0  0
   -5.5293  -11.6443   20.9732 C   0  0  0  0  0  0  0  0  0  0  0  0
   -4.9465  -10.8841   22.0198 C   0  0  1  0  0  0  0  0  0  0  0  0
   -1.9125   -6.1346   19.7593 C   0  0  0  0  0  0  0  0  0  0  0  0
   -2.8230   -5.0204   20.2406 C   0  0  0  0  0  0  0  0  0  0  0  0
   -2.5140   -5.1493   18.7713 C   0  0  0  0  0  0  0  0  0  0  0  0
   -0.0825   -6.2257   22.0003 C   0  0  1  0  0  0  0  0  0  0  0  0
    0.0789   -7.5394   22.5490 C   0  0  0  0  0  0  0  0  0  0  0  0
    1.1024   -6.7442   22.6072 C   0  0  0  0  0  0  0  0  0  0  0  0
   -0.1347   -5.9324   20.1722 S   0  0  0  0  0  0  0  0  0  0  0  0
   -2.3651   -7.5447   19.7674 C   0  0  2  0  0  0  0  0  0  0  0  0
   -2.2531   -8.3044   18.6317 C   0  0  0  0  0  0  0  0  0  0  0  0
   -2.9121   -8.0301   20.8933 N   0  0  0  0  0  0  0  0  0  0  0  0
   -3.4087   -9.2736   20.8456 C   0  0  2  0  0  0  0  0  0  0  0  0
   -4.0084   -9.8202   22.0675 C   0  0  1  0  0  0  0  0  0  0  0  0
   -6.4407  -12.3383   22.8663 N   0  3  0  0  0  0  0  0  0  0  0  0
   -3.7192   -9.2700   23.3335 C   0  0  0  0  0  0  0  0  0  0  0  0
   -3.3806  -10.0320   19.7518 N   0  0  0  0  0  0  0  0  0  0  0  0
   -2.7898   -9.5716   18.6490 C   0  0  1  0  0  0  0  0  0  0  0  0
   -2.7860  -10.3943   17.5485 N   0  0  1  0  0  0  0  0  0  0  0  0
   -1.9545  -12.6634   18.1046 C   0  0  0  0  0  0  0  0  0  0  0  0
   -2.0761  -10.0316   16.3286 C   0  0  0  0  0  0  0  0  0  0  0  0
   -3.0213  -12.0237   15.2607 O   0  0  0  0  0  0  0  0  0  0  0  0
   -3.8954  -11.9332   18.5084 H   0  0  0  0  0  0  0  0  0  0  0  0
   -4.7900  -11.7601   16.3079 H   0  0  0  0  0  0  0  0  0  0  0  0
   -4.0331  -13.3559   16.4694 H   0  0  0  0  0  0  0  0  0  0  0  0
   -2.1754  -10.4480   14.2272 H   0  0  0  0  0  0  0  0  0  0  0  0
   -3.7525  -10.1031   14.9698 H   0  0  0  0  0  0  0  0  0  0  0  0
   -4.0948   -9.2519   25.4447 H   0  0  0  0  0  0  0  0  0  0  0  0
   -5.7126  -11.1378   25.3678 H   0  0  0  0  0  0  0  0  0  0  0  0
   -7.0964  -13.2144   21.0097 H   0  0  0  0  0  0  0  0  0  0  0  0
   -5.3400  -11.5462   19.9103 H   0  0  0  0  0  0  0  0  0  0  0  0
   -2.4156   -4.1768   20.7866 H   0  0  0  0  0  0  0  0  0  0  0  0
   -3.8175   -5.2855   20.5935 H   0  0  0  0  0  0  0  0  0  0  0  0
   -3.3017   -5.5004   18.1079 H   0  0  0  0  0  0  0  0  0  0  0  0
   -1.8940   -4.4000   18.2929 H   0  0  0  0  0  0  0  0  0  0  0  0
   -0.6712   -5.5230   22.5417 H   0  0  0  0  0  0  0  0  0  0  0  0
   -0.3955   -8.4749   22.7302 H   0  0  0  0  0  0  0  0  0  0  0  0
    2.1086   -6.5335   22.8848 H   0  0  0  0  0  0  0  0  0  0  0  0
   -1.7560   -7.8897   17.7624 H   0  0  0  0  0  0  0  0  0  0  0  0
   -7.0203  -12.8326   23.5203 H   0  0  0  0  0  0  0  0  0  0  0  0
   -3.0126   -8.4468   23.3975 H   0  0  0  0  0  0  0  0  0  0  0  0
   -1.5126  -12.2976   19.0381 H   0  0  0  0  0  0  0  0  0  0  0  0
   -1.1824  -12.6477   17.3319 H   0  0  0  0  0  0  0  0  0  0  0  0
   -2.2545  -13.7054   18.2671 H   0  0  0  0  0  0  0  0  0  0  0  0
   -2.0504   -8.9525   16.1802 H   0  0  0  0  0  0  0  0  0  0  0  0
   -1.0463  -10.4016   16.3781 H   0  0  0  0  0  0  0  0  0  0  0  0
  1  2  1  0  0  0  0
  1 28  1  0  0  0  0
  1 29  1  0  0  0  0
  1 32  1  1  0  0  0
  2 31  1  0  0  0  0
  2 33  1  0  0  0  0
  2 34  1  0  0  0  0
  3 30  1  0  0  0  0
  3 31  1  0  0  0  0
  3 35  1  0  0  0  0
  3 36  1  0  0  0  0
  4 18  2  0  0  0  0
  5 18  2  0  0  0  0
  6  7  1  0  0  0  0
  6 25  1  0  0  0  0
  6 37  1  0  0  0  0
  7 38  1  0  0  0  0
  8  7  1  6  0  0  0
  8 11  1  0  0  0  0
  8 24  1  0  0  0  0
  9 10  1  0  0  0  0
  9 24  1  0  0  0  0
  9 39  1  0  0  0  0
 10 40  1  0  0  0  0
 11 10  1  6  0  0  0
 11 23  1  0  0  0  0
 12 13  1  0  0  0  0
 12 14  1  0  0  0  0
 12 18  1  0  0  0  0
 13 14  1  0  0  0  0
 13 41  1  0  0  0  0
 13 42  1  0  0  0  0
 14 43  1  0  0  0  0
 14 44  1  0  0  0  0
 15 16  1  0  0  0  0
 15 17  1  0  0  0  0
 15 18  1  0  0  0  0
 15 45  1  1  0  0  0
 16 17  2  0  0  0  0
 16 46  1  0  0  0  0
 17 47  1  0  0  0  0
 19 12  1  6  0  0  0
 19 20  1  0  0  0  0
 19 21  1  0  0  0  0
 20 48  1  0  0  0  0
 22 21  1  1  0  0  0
 22 23  1  0  0  0  0
 22 26  1  0  0  0  0
 23 25  1  6  0  0  0
 24 49  1  0  0  0  0
 25 50  1  0  0  0  0
 26 27  1  0  0  0  0
 27 20  1  6  0  0  0
 27 28  1  0  0  0  0
 28 30  1  1  0  0  0
 29 51  1  0  0  0  0
 29 52  1  0  0  0  0
 29 53  1  0  0  0  0
 30 54  1  0  0  0  0
 30 55  1  0  0  0  0
M  CHG  1  24   1
M  END
$$$$
