8F2
 OpenBabel04161911233D

 50 53  0  0  1  0  0  0  0  0999 V2000
   -4.5447    3.2021   13.5894 C   0  0  0  0  0  0  0  0  0  0  0  0
   -4.6740    2.1684   14.5222 C   0  0  0  0  0  0  0  0  0  0  0  0
   -5.5664    2.3062   15.5868 C   0  0  0  0  0  0  0  0  0  0  0  0
   -5.9000    0.9823   16.7172 S   0  0  0  0  0  0  0  0  0  0  0  0
   -7.3302    0.7699   16.7089 O   0  0  0  0  0  0  0  0  0  0  0  0
   -5.1718    1.2484   17.9377 O   0  0  0  0  0  0  0  0  0  0  0  0
   -5.2067   -0.3960   16.0646 N   0  0  0  0  0  0  0  0  0  0  0  0
   -6.2617    3.5119   15.7706 C   0  0  0  0  0  0  0  0  0  0  0  0
   -6.0974    4.5643   14.8616 C   0  0  0  0  0  0  0  0  0  0  0  0
   -5.2417    4.4108   13.7642 C   0  0  0  0  0  0  0  0  0  0  0  0
   -5.1786    5.4860   12.7425 C   0  0  0  0  0  0  0  0  0  0  0  0
   -6.2588    5.8897   12.3033 O   0  0  0  0  0  0  0  0  0  0  0  0
   -3.9520    5.9568   12.2998 N   0  0  0  0  0  0  0  0  0  0  0  0
   -3.8891    6.8000   11.1092 C   0  0  0  0  0  0  0  0  0  0  0  0
   -3.2437    6.0069    9.9736 C   0  0  0  0  0  0  0  0  0  0  0  0
   -1.9591    5.3306   10.4130 C   0  0  0  0  0  0  0  0  0  0  0  0
   -1.0107    4.9299    9.4669 C   0  0  0  0  0  0  0  0  0  0  0  0
    0.1438    4.2880    9.8793 C   0  0  0  0  0  0  0  0  0  0  0  0
    1.1009    3.9266    8.9554 O   0  0  0  0  0  0  0  0  0  0  0  0
    0.3840    4.0285   11.2222 C   0  0  0  0  0  0  0  0  0  0  0  0
    1.5642    3.4221   11.5581 O   0  0  0  0  0  0  0  0  0  0  0  0
   -0.5486    4.3916   12.1823 C   0  0  0  0  0  0  0  0  0  0  0  0
   -1.7178    5.0690   11.7877 C   0  0  0  0  0  0  0  0  0  0  0  0
   -2.6456    5.6116   12.8761 C   0  0  1  0  0  0  0  0  0  0  0  0
   -2.0762    6.7974   13.6430 C   0  0  0  0  0  0  0  0  0  0  0  0
   -2.5419    7.0618   14.9420 C   0  0  0  0  0  0  0  0  0  0  0  0
   -2.0573    8.1601   15.6483 C   0  0  0  0  0  0  0  0  0  0  0  0
   -1.1185    9.0101   15.0692 C   0  0  0  0  0  0  0  0  0  0  0  0
   -0.6530    8.7563   13.7784 C   0  0  0  0  0  0  0  0  0  0  0  0
   -1.1336    7.6651   13.0701 C   0  0  0  0  0  0  0  0  0  0  0  0
   -3.9060    3.0609   12.7199 H   0  0  0  0  0  0  0  0  0  0  0  0
   -4.0785    1.2730   14.3750 H   0  0  0  0  0  0  0  0  0  0  0  0
   -5.6065   -1.2516   16.4567 H   0  0  0  0  0  0  0  0  0  0  0  0
   -5.0045   -0.4237   15.0684 H   0  0  0  0  0  0  0  0  0  0  0  0
   -6.9510    3.6270   16.6041 H   0  0  0  0  0  0  0  0  0  0  0  0
   -6.6593    5.4873   14.9910 H   0  0  0  0  0  0  0  0  0  0  0  0
   -3.2953    7.6932   11.3340 H   0  0  0  0  0  0  0  0  0  0  0  0
   -4.8810    7.1566   10.8081 H   0  0  0  0  0  0  0  0  0  0  0  0
   -3.0532    6.6711    9.1236 H   0  0  0  0  0  0  0  0  0  0  0  0
   -3.9363    5.2222    9.6441 H   0  0  0  0  0  0  0  0  0  0  0  0
   -1.1668    5.1296    8.4040 H   0  0  0  0  0  0  0  0  0  0  0  0
    1.8105    3.5376    9.4832 H   0  0  0  0  0  0  0  0  0  0  0  0
    1.6118    3.3656   12.5250 H   0  0  0  0  0  0  0  0  0  0  0  0
   -0.3613    4.2057   13.2366 H   0  0  0  0  0  0  0  0  0  0  0  0
   -2.7492    4.8174   13.6080 H   0  0  0  0  0  0  0  0  0  0  0  0
   -3.2899    6.4223   15.4043 H   0  0  0  0  0  0  0  0  0  0  0  0
   -2.4258    8.3678   16.6504 H   0  0  0  0  0  0  0  0  0  0  0  0
   -0.7439    9.8679   15.6158 H   0  0  0  0  0  0  0  0  0  0  0  0
    0.0740    9.4205   13.3138 H   0  0  0  0  0  0  0  0  0  0  0  0
   -0.7707    7.5053   12.0581 H   0  0  0  0  0  0  0  0  0  0  0  0
  1  2  2  0  0  0  0
  1 10  1  0  0  0  0
  1 31  1  0  0  0  0
  2  3  1  0  0  0  0
  2 32  1  0  0  0  0
  3  4  1  0  0  0  0
  3  8  2  0  0  0  0
  4  5  2  0  0  0  0
  4  6  2  0  0  0  0
  4  7  1  0  0  0  0
  7 33  1  0  0  0  0
  7 34  1  0  0  0  0
  8  9  1  0  0  0  0
  8 35  1  0  0  0  0
  9 10  2  0  0  0  0
  9 36  1  0  0  0  0
 10 11  1  0  0  0  0
 11 12  2  0  0  0  0
 11 13  1  0  0  0  0
 13 14  1  0  0  0  0
 13 24  1  0  0  0  0
 14 15  1  0  0  0  0
 14 37  1  0  0  0  0
 14 38  1  0  0  0  0
 15 16  1  0  0  0  0
 15 39  1  0  0  0  0
 15 40  1  0  0  0  0
 16 17  2  0  0  0  0
 16 23  1  0  0  0  0
 17 18  1  0  0  0  0
 17 41  1  0  0  0  0
 18 19  1  0  0  0  0
 18 20  2  0  0  0  0
 19 42  1  0  0  0  0
 20 21  1  0  0  0  0
 20 22  1  0  0  0  0
 21 43  1  0  0  0  0
 22 23  2  0  0  0  0
 22 44  1  0  0  0  0
 23 24  1  0  0  0  0
 24 25  1  0  0  0  0
 24 45  1  1  0  0  0
 25 26  2  0  0  0  0
 25 30  1  0  0  0  0
 26 27  1  0  0  0  0
 26 46  1  0  0  0  0
 27 28  2  0  0  0  0
 27 47  1  0  0  0  0
 28 29  1  0  0  0  0
 28 48  1  0  0  0  0
 29 30  2  0  0  0  0
 29 49  1  0  0  0  0
 30 50  1  0  0  0  0
M  END
$$$$
