8FK
 OpenBabel04161911243D

 43 46  0  0  1  0  0  0  0  0999 V2000
    2.8198  -25.7162  -32.9703 O   0  0  0  0  0  0  0  0  0  0  0  0
    2.5046  -26.0829  -31.8230 C   0  0  0  0  0  0  0  0  0  0  0  0
    3.4557  -25.7102  -30.7450 C   0  0  0  0  0  0  0  0  0  0  0  0
    3.9973  -24.4163  -30.7866 C   0  0  0  0  0  0  0  0  0  0  0  0
    4.9615  -24.0230  -29.8588 C   0  0  0  0  0  0  0  0  0  0  0  0
    5.3975  -24.9206  -28.8882 C   0  0  0  0  0  0  0  0  0  0  0  0
    4.8711  -26.2128  -28.8455 C   0  0  0  0  0  0  0  0  0  0  0  0
    3.9057  -26.6171  -29.7771 C   0  0  0  0  0  0  0  0  0  0  0  0
    3.2507  -28.2640  -29.6448 S   0  0  0  0  0  0  0  0  0  0  0  0
    1.5674  -27.7593  -29.3399 C   0  0  0  0  0  0  0  0  0  0  0  0
    0.9862  -28.1011  -28.1256 C   0  0  0  0  0  0  0  0  0  0  0  0
   -0.3399  -27.7351  -27.8619 C   0  0  0  0  0  0  0  0  0  0  0  0
   -1.0723  -27.0076  -28.7749 C   0  0  0  0  0  0  0  0  0  0  0  0
   -0.5045  -26.6800  -29.9851 C   0  0  0  0  0  0  0  0  0  0  0  0
    0.8124  -27.0481  -30.2822 C   0  0  0  0  0  0  0  0  0  0  0  0
    1.3009  -26.7230  -31.5624 N   0  0  0  0  0  0  0  0  0  0  0  0
    0.4519  -27.1386  -32.6840 C   0  0  0  0  0  0  0  0  0  0  0  0
   -1.0248  -28.0765  -26.6980 N   0  0  0  0  0  0  0  0  0  0  0  0
   -0.5994  -28.9746  -25.7520 C   0  0  0  0  0  0  0  0  0  0  0  0
    0.4504  -29.6091  -25.8015 O   0  0  0  0  0  0  0  0  0  0  0  0
   -1.5776  -29.0989  -24.5811 C   0  0  2  0  0  0  0  0  0  0  0  0
   -1.8643  -27.7584  -23.9290 C   0  0  0  0  0  0  0  0  0  0  0  0
   -0.6109  -27.5348  -23.1050 C   0  0  0  0  0  0  0  0  0  0  0  0
   -0.0027  -28.9203  -22.9454 C   0  0  0  0  0  0  0  0  0  0  0  0
   -0.9463  -29.8350  -23.5299 O   0  0  0  0  0  0  0  0  0  0  0  0
    3.6761  -23.7180  -31.5581 H   0  0  0  0  0  0  0  0  0  0  0  0
    5.3809  -23.0213  -29.9036 H   0  0  0  0  0  0  0  0  0  0  0  0
    6.1549  -24.6213  -28.1689 H   0  0  0  0  0  0  0  0  0  0  0  0
    5.2175  -26.9019  -28.0775 H   0  0  0  0  0  0  0  0  0  0  0  0
    1.5879  -28.6452  -27.4018 H   0  0  0  0  0  0  0  0  0  0  0  0
   -2.0989  -26.7153  -28.5791 H   0  0  0  0  0  0  0  0  0  0  0  0
   -1.1038  -26.1046  -30.6860 H   0  0  0  0  0  0  0  0  0  0  0  0
    0.8734  -26.8534  -33.6437 H   0  0  0  0  0  0  0  0  0  0  0  0
   -0.5481  -26.6963  -32.6092 H   0  0  0  0  0  0  0  0  0  0  0  0
    0.3590  -28.2306  -32.6479 H   0  0  0  0  0  0  0  0  0  0  0  0
   -1.9471  -27.6703  -26.5873 H   0  0  0  0  0  0  0  0  0  0  0  0
   -2.4825  -29.6112  -24.9287 H   0  0  0  0  0  0  0  0  0  0  0  0
   -2.7329  -27.8462  -23.2650 H   0  0  0  0  0  0  0  0  0  0  0  0
   -2.0622  -26.9308  -24.6182 H   0  0  0  0  0  0  0  0  0  0  0  0
   -0.8409  -27.0860  -22.1360 H   0  0  0  0  0  0  0  0  0  0  0  0
    0.0822  -26.8629  -23.6260 H   0  0  0  0  0  0  0  0  0  0  0  0
    0.1721  -29.2028  -21.9076 H   0  0  0  0  0  0  0  0  0  0  0  0
    0.9555  -28.9865  -23.4770 H   0  0  0  0  0  0  0  0  0  0  0  0
  1  2  2  0  0  0  0
  2  3  1  0  0  0  0
  2 16  1  0  0  0  0
  3  4  2  0  0  0  0
  3  8  1  0  0  0  0
  4  5  1  0  0  0  0
  4 26  1  0  0  0  0
  5  6  2  0  0  0  0
  5 27  1  0  0  0  0
  6  7  1  0  0  0  0
  6 28  1  0  0  0  0
  7  8  2  0  0  0  0
  7 29  1  0  0  0  0
  8  9  1  0  0  0  0
  9 10  1  0  0  0  0
 10 11  2  0  0  0  0
 10 15  1  0  0  0  0
 11 12  1  0  0  0  0
 11 30  1  0  0  0  0
 12 13  2  0  0  0  0
 12 18  1  0  0  0  0
 13 14  1  0  0  0  0
 13 31  1  0  0  0  0
 14 15  2  0  0  0  0
 14 32  1  0  0  0  0
 15 16  1  0  0  0  0
 16 17  1  0  0  0  0
 17 33  1  0  0  0  0
 17 34  1  0  0  0  0
 17 35  1  0  0  0  0
 18 19  1  0  0  0  0
 18 36  1  0  0  0  0
 19 20  2  0  0  0  0
 19 21  1  0  0  0  0
 21 22  1  0  0  0  0
 21 25  1  0  0  0  0
 21 37  1  6  0  0  0
 22 23  1  0  0  0  0
 22 38  1  0  0  0  0
 22 39  1  0  0  0  0
 23 24  1  0  0  0  0
 23 40  1  0  0  0  0
 23 41  1  0  0  0  0
 24 25  1  0  0  0  0
 24 42  1  0  0  0  0
 24 43  1  0  0  0  0
M  END
$$$$
