8GE
 OpenBabel04161911253D

 31 33  0  0  1  0  0  0  0  0999 V2000
   -5.9877    0.8944   16.8056 S   0  0  0  0  0  0  0  0  0  0  0  0
   -5.4313    0.8862   18.1220 O   0  0  0  0  0  0  0  0  0  0  0  0
   -7.4174    0.9066   16.5718 O   0  0  0  0  0  0  0  0  0  0  0  0
   -5.3932   -0.4136   15.9590 N   0  0  0  0  0  0  0  0  0  0  0  0
   -5.2594    2.2545   15.9320 C   0  0  0  0  0  0  0  0  0  0  0  0
   -6.0339    3.3613   15.5542 C   0  0  0  0  0  0  0  0  0  0  0  0
   -5.4151    4.4991   15.0316 C   0  0  0  0  0  0  0  0  0  0  0  0
   -4.0272    4.5200   14.8708 C   0  0  0  0  0  0  0  0  0  0  0  0
   -3.2859    3.3642   15.1716 C   0  0  0  0  0  0  0  0  0  0  0  0
   -3.8866    2.2445   15.7187 C   0  0  0  0  0  0  0  0  0  0  0  0
   -0.2849    8.8635   12.9603 C   0  0  0  0  0  0  0  0  0  0  0  0
   -1.2478    9.7151   13.5230 C   0  0  0  0  0  0  0  0  0  0  0  0
   -0.4828    7.4913   12.9486 C   0  0  0  0  0  0  0  0  0  0  0  0
   -1.6403    6.9682   13.5374 C   0  0  1  0  0  0  0  0  0  0  0  0
   -2.1090    5.6599   13.6906 C   0  0  0  0  0  0  0  0  0  0  0  0
   -2.5846    7.8162   14.1245 C   0  0  2  0  0  0  0  0  0  0  0  0
   -2.4035    9.2074   14.1197 C   0  0  0  0  0  0  0  0  0  0  0  0
   -3.5918    7.0098   14.6338 N   0  3  0  0  0  0  0  0  0  0  0  0
   -3.2991    5.6846   14.3899 C   0  0  2  0  0  0  0  0  0  0  0  0
   -4.4771   -0.7678   16.2193 H   0  0  0  0  0  0  0  0  0  0  0  0
   -6.1013   -1.0485   15.5906 H   0  0  0  0  0  0  0  0  0  0  0  0
   -7.1152    3.3645   15.7087 H   0  0  0  0  0  0  0  0  0  0  0  0
   -6.0175    5.3604   14.7479 H   0  0  0  0  0  0  0  0  0  0  0  0
   -2.2083    3.3442   15.0157 H   0  0  0  0  0  0  0  0  0  0  0  0
   -3.2680    1.4020   16.0160 H   0  0  0  0  0  0  0  0  0  0  0  0
    0.6167    9.2764   12.5121 H   0  0  0  0  0  0  0  0  0  0  0  0
   -1.0716   10.7860   13.4973 H   0  0  0  0  0  0  0  0  0  0  0  0
    0.2428    6.8267   12.4914 H   0  0  0  0  0  0  0  0  0  0  0  0
   -1.6028    4.7609   13.3472 H   0  0  0  0  0  0  0  0  0  0  0  0
   -3.1464    9.8798   14.5543 H   0  0  0  0  0  0  0  0  0  0  0  0
   -4.3921    7.3550   15.1544 H   0  0  0  0  0  0  0  0  0  0  0  0
  1  2  2  0  0  0  0
  1  3  2  0  0  0  0
  1  4  1  0  0  0  0
  1  5  1  0  0  0  0
  4 20  1  0  0  0  0
  4 21  1  0  0  0  0
  5  6  2  0  0  0  0
  5 10  1  0  0  0  0
  6  7  1  0  0  0  0
  6 22  1  0  0  0  0
  7  8  2  0  0  0  0
  7 23  1  0  0  0  0
  8  9  1  0  0  0  0
  9 10  2  0  0  0  0
  9 24  1  0  0  0  0
 10 25  1  0  0  0  0
 11 12  1  0  0  0  0
 11 13  1  0  0  0  0
 11 26  1  0  0  0  0
 12 17  1  0  0  0  0
 12 27  1  0  0  0  0
 13 28  1  0  0  0  0
 14 13  1  1  0  0  0
 14 15  1  0  0  0  0
 14 16  1  0  0  0  0
 15 19  1  0  0  0  0
 15 29  1  0  0  0  0
 16 17  1  1  0  0  0
 16 18  1  0  0  0  0
 17 30  1  0  0  0  0
 18 19  1  0  0  0  0
 18 31  1  0  0  0  0
 19  8  1  1  0  0  0
M  CHG  1  18   1
M  END
$$$$
