8HD
 OpenBabel04161912053D

 89 92  0  0  1  0  0  0  0  0999 V2000
   21.0171   27.4979   14.4606 C   0  0  0  0  0  0  0  0  0  0  0  0
   21.7873   28.6905   13.9599 C   0  0  0  0  0  0  0  0  0  0  0  0
   21.8377   29.6116   15.0413 O   0  0  0  0  0  0  0  0  0  0  0  0
   21.6286   26.4018   15.0774 C   0  0  0  0  0  0  0  0  0  0  0  0
   20.8431   25.3473   15.5610 C   0  0  0  0  0  0  0  0  0  0  0  0
   19.4492   25.3860   15.4306 C   0  0  0  0  0  0  0  0  0  0  0  0
   18.8322   26.4553   14.8028 C   0  0  0  0  0  0  0  0  0  0  0  0
   19.6193   27.5101   14.3482 C   0  0  0  0  0  0  0  0  0  0  0  0
   18.4887   23.9904   15.9407 S   0  0  0  0  0  0  0  0  0  0  0  0
   17.3860   23.8508   15.0201 O   0  0  0  0  0  0  0  0  0  0  0  0
   19.4179   22.9092   16.1968 O   0  0  0  0  0  0  0  0  0  0  0  0
   17.8298   24.4274   17.4220 N   0  0  0  0  0  0  0  0  0  0  0  0
   18.7882   24.7639   18.4754 C   0  0  0  0  0  0  0  0  0  0  0  0
   18.4782   24.1133   19.8219 C   0  0  0  0  0  0  0  0  0  0  0  0
   18.5663   22.5878   19.7776 C   0  0  0  0  0  0  0  0  0  0  0  0
   19.4916   24.6720   20.8230 C   0  0  0  0  0  0  0  0  0  0  0  0
   16.5117   25.0798   17.4005 C   0  0  0  0  0  0  0  0  0  0  0  0
   15.4408   24.1387   17.9723 C   0  0  1  0  0  0  0  0  0  0  0  0
   14.2648   24.9032   18.2930 O   0  0  0  0  0  0  0  0  0  0  0  0
   15.0888   22.9993   16.9938 C   0  0  1  0  0  0  0  0  0  0  0  0
   14.2522   22.0042   17.6799 N   0  0  0  0  0  0  0  0  0  0  0  0
   14.7281   20.8320   18.1740 C   0  0  0  0  0  0  0  0  0  0  0  0
   15.9614   20.5488   18.2342 O   0  0  0  0  0  0  0  0  0  0  0  0
   14.3190   23.4732   15.7535 C   0  0  0  0  0  0  0  0  0  0  0  0
   12.6713   21.8578   14.7715 C   0  0  0  0  0  0  0  0  0  0  0  0
   12.3734   20.6802   14.0840 C   0  0  0  0  0  0  0  0  0  0  0  0
   13.3668   19.9566   13.4252 C   0  0  0  0  0  0  0  0  0  0  0  0
   14.6825   20.4057   13.4921 C   0  0  0  0  0  0  0  0  0  0  0  0
   14.9983   21.5553   14.2263 C   0  0  0  0  0  0  0  0  0  0  0  0
   13.9932   22.2883   14.8724 C   0  0  0  0  0  0  0  0  0  0  0  0
   13.7279   19.8686   18.6546 C   0  0  0  0  0  0  0  0  0  0  0  0
   13.8892   19.1881   19.8672 C   0  0  0  0  0  0  0  0  0  0  0  0
   12.9013   18.3026   20.3162 C   0  0  0  0  0  0  0  0  0  0  0  0
   11.7838   18.0354   19.5160 C   0  0  0  0  0  0  0  0  0  0  0  0
   11.6359   18.7119   18.3038 C   0  0  0  0  0  0  0  0  0  0  0  0
   12.5710   19.6599   17.8987 C   0  0  0  0  0  0  0  0  0  0  0  0
   10.4170   18.5608   17.4902 C   0  0  0  0  0  0  0  0  0  0  0  0
    9.4327   19.1941   17.8291 O   0  0  0  0  0  0  0  0  0  0  0  0
   10.4563   17.7149   16.3828 N   0  0  0  0  0  0  0  0  0  0  0  0
   11.6704   17.0392   15.9705 C   0  0  0  0  0  0  0  0  0  0  0  0
    9.2045   17.4944   15.6144 C   0  0  0  0  0  0  0  0  0  0  0  0
    9.0023   18.5440   14.5578 C   0  0  0  0  0  0  0  0  0  0  0  0
    8.8482   19.8213   14.8134 N   0  0  0  0  0  0  0  0  0  0  0  0
    8.6968   20.3833   13.5945 C   0  0  0  0  0  0  0  0  0  0  0  0
    8.8311   19.4591   12.6008 C   0  0  0  0  0  0  0  0  0  0  0  0
    8.8361   18.2285   13.1989 O   0  0  0  0  0  0  0  0  0  0  0  0
    8.7412   21.8226   13.4741 C   0  0  0  0  0  0  0  0  0  0  0  0
   21.2781   29.1474   13.0957 H   0  0  0  0  0  0  0  0  0  0  0  0
   22.7971   28.4066   13.6403 H   0  0  0  0  0  0  0  0  0  0  0  0
   22.3211   30.4089   14.7773 H   0  0  0  0  0  0  0  0  0  0  0  0
   22.7107   26.3597   15.1774 H   0  0  0  0  0  0  0  0  0  0  0  0
   21.3122   24.4900   16.0383 H   0  0  0  0  0  0  0  0  0  0  0  0
   17.7566   26.4798   14.6611 H   0  0  0  0  0  0  0  0  0  0  0  0
   19.1373   28.3636   13.8847 H   0  0  0  0  0  0  0  0  0  0  0  0
   18.8231   25.8527   18.5843 H   0  0  0  0  0  0  0  0  0  0  0  0
   19.7811   24.4305   18.1463 H   0  0  0  0  0  0  0  0  0  0  0  0
   17.4675   24.3795   20.1486 H   0  0  0  0  0  0  0  0  0  0  0  0
   18.3330   22.1572   20.7622 H   0  0  0  0  0  0  0  0  0  0  0  0
   19.5746   22.2689   19.4912 H   0  0  0  0  0  0  0  0  0  0  0  0
   17.8532   22.1839   19.0515 H   0  0  0  0  0  0  0  0  0  0  0  0
   19.4224   25.7675   20.8520 H   0  0  0  0  0  0  0  0  0  0  0  0
   20.5142   24.4042   20.5225 H   0  0  0  0  0  0  0  0  0  0  0  0
   19.3116   24.2861   21.8311 H   0  0  0  0  0  0  0  0  0  0  0  0
   16.2398   25.3372   16.3686 H   0  0  0  0  0  0  0  0  0  0  0  0
   16.5369   26.0178   17.9563 H   0  0  0  0  0  0  0  0  0  0  0  0
   15.8047   23.6892   18.9075 H   0  0  0  0  0  0  0  0  0  0  0  0
   13.9284   25.3103   17.4752 H   0  0  0  0  0  0  0  0  0  0  0  0
   16.0227   22.5223   16.6658 H   0  0  0  0  0  0  0  0  0  0  0  0
   13.2649   22.1907   17.7754 H   0  0  0  0  0  0  0  0  0  0  0  0
   14.8860   24.2087   15.1787 H   0  0  0  0  0  0  0  0  0  0  0  0
   13.3769   23.9518   16.0652 H   0  0  0  0  0  0  0  0  0  0  0  0
   11.8832   22.4464   15.2386 H   0  0  0  0  0  0  0  0  0  0  0  0
   11.3573   20.3157   14.0644 H   0  0  0  0  0  0  0  0  0  0  0  0
   13.1149   19.0595   12.8620 H   0  0  0  0  0  0  0  0  0  0  0  0
   15.4671   19.8595   12.9775 H   0  0  0  0  0  0  0  0  0  0  0  0
   16.0352   21.8870   14.2879 H   0  0  0  0  0  0  0  0  0  0  0  0
   14.7719   19.3741   20.4780 H   0  0  0  0  0  0  0  0  0  0  0  0
   12.9901   17.8124   21.2861 H   0  0  0  0  0  0  0  0  0  0  0  0
   11.0296   17.3294   19.8552 H   0  0  0  0  0  0  0  0  0  0  0  0
   12.3746   20.2460   17.0128 H   0  0  0  0  0  0  0  0  0  0  0  0
   11.4754   16.4561   15.0753 H   0  0  0  0  0  0  0  0  0  0  0  0
   11.9984   16.3761   16.7791 H   0  0  0  0  0  0  0  0  0  0  0  0
   12.4614   17.7687   15.7685 H   0  0  0  0  0  0  0  0  0  0  0  0
    8.3518   17.5614   16.3143 H   0  0  0  0  0  0  0  0  0  0  0  0
    9.2267   16.4843   15.2076 H   0  0  0  0  0  0  0  0  0  0  0  0
    8.9969   19.6186   11.5391 H   0  0  0  0  0  0  0  0  0  0  0  0
    8.5758   22.1012   12.4359 H   0  0  0  0  0  0  0  0  0  0  0  0
    9.7396   22.1157   13.7963 H   0  0  0  0  0  0  0  0  0  0  0  0
    7.9822   22.2411   14.1286 H   0  0  0  0  0  0  0  0  0  0  0  0
  1  2  1  0  0  0  0
  1  4  2  0  0  0  0
  1  8  1  0  0  0  0
  2  3  1  0  0  0  0
  2 48  1  0  0  0  0
  2 49  1  0  0  0  0
  3 50  1  0  0  0  0
  4  5  1  0  0  0  0
  4 51  1  0  0  0  0
  5  6  2  0  0  0  0
  5 52  1  0  0  0  0
  6  7  1  0  0  0  0
  6  9  1  0  0  0  0
  7  8  2  0  0  0  0
  7 53  1  0  0  0  0
  8 54  1  0  0  0  0
  9 10  2  0  0  0  0
  9 11  2  0  0  0  0
  9 12  1  0  0  0  0
 12 13  1  0  0  0  0
 12 17  1  0  0  0  0
 13 14  1  0  0  0  0
 13 55  1  0  0  0  0
 13 56  1  0  0  0  0
 14 15  1  0  0  0  0
 14 16  1  0  0  0  0
 14 57  1  0  0  0  0
 15 58  1  0  0  0  0
 15 59  1  0  0  0  0
 15 60  1  0  0  0  0
 16 61  1  0  0  0  0
 16 62  1  0  0  0  0
 16 63  1  0  0  0  0
 17 18  1  0  0  0  0
 17 64  1  0  0  0  0
 17 65  1  0  0  0  0
 18 19  1  0  0  0  0
 18 20  1  0  0  0  0
 18 66  1  1  0  0  0
 19 67  1  0  0  0  0
 20 21  1  0  0  0  0
 20 24  1  0  0  0  0
 20 68  1  6  0  0  0
 21 22  1  0  0  0  0
 21 69  1  0  0  0  0
 22 23  2  0  0  0  0
 22 31  1  0  0  0  0
 24 30  1  0  0  0  0
 24 70  1  0  0  0  0
 24 71  1  0  0  0  0
 25 26  2  0  0  0  0
 25 30  1  0  0  0  0
 25 72  1  0  0  0  0
 26 27  1  0  0  0  0
 26 73  1  0  0  0  0
 27 28  2  0  0  0  0
 27 74  1  0  0  0  0
 28 29  1  0  0  0  0
 28 75  1  0  0  0  0
 29 30  2  0  0  0  0
 29 76  1  0  0  0  0
 31 32  2  0  0  0  0
 31 36  1  0  0  0  0
 32 33  1  0  0  0  0
 32 77  1  0  0  0  0
 33 34  2  0  0  0  0
 33 78  1  0  0  0  0
 34 35  1  0  0  0  0
 34 79  1  0  0  0  0
 35 36  2  0  0  0  0
 35 37  1  0  0  0  0
 36 80  1  0  0  0  0
 37 38  2  0  0  0  0
 37 39  1  0  0  0  0
 39 40  1  0  0  0  0
 39 41  1  0  0  0  0
 40 81  1  0  0  0  0
 40 82  1  0  0  0  0
 40 83  1  0  0  0  0
 41 42  1  0  0  0  0
 41 84  1  0  0  0  0
 41 85  1  0  0  0  0
 42 43  2  0  0  0  0
 42 46  1  0  0  0  0
 43 44  1  0  0  0  0
 44 45  2  0  0  0  0
 44 47  1  0  0  0  0
 45 46  1  0  0  0  0
 45 86  1  0  0  0  0
 47 87  1  0  0  0  0
 47 88  1  0  0  0  0
 47 89  1  0  0  0  0
M  END
$$$$
