8HE
 OpenBabel04161911263D

 28 29  0  0  0  0  0  0  0  0999 V2000
   -3.6398    4.2246   14.5221 C   0  0  0  0  0  0  0  0  0  0  0  0
   -5.0263    4.3216   14.7587 C   0  0  0  0  0  0  0  0  0  0  0  0
   -5.7245    3.2824   15.3911 C   0  0  0  0  0  0  0  0  0  0  0  0
   -1.8748    5.0371   12.9216 C   0  0  0  0  0  0  0  0  0  0  0  0
   -1.1117    6.0526   12.3907 C   0  0  0  0  0  0  0  0  0  0  0  0
   -1.2996    7.3376   12.8860 C   0  0  0  0  0  0  0  0  0  0  0  0
   -2.2022    7.6381   13.8911 C   0  0  0  0  0  0  0  0  0  0  0  0
   -2.9638    6.6114   14.3989 C   0  0  0  0  0  0  0  0  0  0  0  0
   -5.0389    2.1405   15.7818 C   0  0  0  0  0  0  0  0  0  0  0  0
   -3.6734    2.0269   15.5743 C   0  0  0  0  0  0  0  0  0  0  0  0
   -2.9877    3.0605   14.9458 C   0  0  0  0  0  0  0  0  0  0  0  0
   -5.8709    0.8904   16.6554 S   0  0  0  0  0  0  0  0  0  0  0  0
   -7.2846    1.0012   16.4040 O   0  0  0  0  0  0  0  0  0  0  0  0
   -5.3500    0.9839   17.9909 O   0  0  0  0  0  0  0  0  0  0  0  0
   -5.3524   -0.5376   16.0110 N   0  0  0  0  0  0  0  0  0  0  0  0
   -2.8391    5.3005   13.9142 C   0  0  0  0  0  0  0  0  0  0  0  0
    0.1169    9.1962   11.8953 N   0  0  0  0  0  0  0  0  0  0  0  0
   -0.5294    8.3527   12.3580 C   0  0  0  0  0  0  0  0  0  0  0  0
   -5.5738    5.2125   14.4465 H   0  0  0  0  0  0  0  0  0  0  0  0
   -6.7933    3.3711   15.5787 H   0  0  0  0  0  0  0  0  0  0  0  0
   -1.7182    4.0202   12.5723 H   0  0  0  0  0  0  0  0  0  0  0  0
   -0.3868    5.8705   11.6026 H   0  0  0  0  0  0  0  0  0  0  0  0
   -2.3080    8.6577   14.2570 H   0  0  0  0  0  0  0  0  0  0  0  0
   -3.6632    6.8118   15.2034 H   0  0  0  0  0  0  0  0  0  0  0  0
   -3.1321    1.1461   15.8994 H   0  0  0  0  0  0  0  0  0  0  0  0
   -1.9160    2.9657   14.7863 H   0  0  0  0  0  0  0  0  0  0  0  0
   -5.7395   -1.3862   16.4038 H   0  0  0  0  0  0  0  0  0  0  0  0
   -4.6706   -0.5690   15.2702 H   0  0  0  0  0  0  0  0  0  0  0  0
  1  2  2  0  0  0  0
  1 11  1  0  0  0  0
  1 16  1  0  0  0  0
  2  3  1  0  0  0  0
  2 19  1  0  0  0  0
  3  9  2  0  0  0  0
  3 20  1  0  0  0  0
  4  5  2  0  0  0  0
  4 16  1  0  0  0  0
  4 21  1  0  0  0  0
  5  6  1  0  0  0  0
  5 22  1  0  0  0  0
  6  7  2  0  0  0  0
  6 18  1  0  0  0  0
  7  8  1  0  0  0  0
  7 23  1  0  0  0  0
  8 16  2  0  0  0  0
  8 24  1  0  0  0  0
  9 10  1  0  0  0  0
  9 12  1  0  0  0  0
 10 11  2  0  0  0  0
 10 25  1  0  0  0  0
 11 26  1  0  0  0  0
 12 13  2  0  0  0  0
 12 14  2  0  0  0  0
 12 15  1  0  0  0  0
 15 27  1  0  0  0  0
 15 28  1  0  0  0  0
 17 18  3  0  0  0  0
M  END
$$$$
