8HV
 OpenBabel04161912053D

 57 60  0  0  0  0  0  0  0  0999 V2000
   15.5226    7.8277    1.7153 N   0  0  0  0  0  0  0  0  0  0  0  0
   15.2212    2.7889   -4.5401 C   0  0  0  0  0  0  0  0  0  0  0  0
   15.4412    3.9868   -3.6193 C   0  0  0  0  0  0  0  0  0  0  0  0
   14.8620    3.7015   -2.2256 C   0  0  0  0  0  0  0  0  0  0  0  0
   13.3920    3.2470   -2.3195 C   0  0  0  0  0  0  0  0  0  0  0  0
   13.2284    2.0871   -3.2967 C   0  0  0  0  0  0  0  0  0  0  0  0
   16.0913    4.8243   -0.3410 C   0  0  0  0  0  0  0  0  0  0  0  0
   14.6427    8.8137    2.1200 C   0  0  0  0  0  0  0  0  0  0  0  0
   15.3943    9.0745    5.6387 C   0  0  0  0  0  0  0  0  0  0  0  0
   15.1894    9.1508    7.9391 C   0  0  0  0  0  0  0  0  0  0  0  0
   14.2796    9.9359    5.5000 C   0  0  0  0  0  0  0  0  0  0  0  0
   14.0832   10.1519    4.1606 C   0  0  0  0  0  0  0  0  0  0  0  0
   14.3529    7.0097   -0.3226 C   0  0  0  0  0  0  0  0  0  0  0  0
   13.4498   10.4391    8.9117 F   0  0  0  0  0  0  0  0  0  0  0  0
   14.0547   10.0177    7.7940 C   0  0  0  0  0  0  0  0  0  0  0  0
   15.9220    8.6254    6.8481 C   0  0  0  0  0  0  0  0  0  0  0  0
   13.5364   10.4568    6.5523 C   0  0  0  0  0  0  0  0  0  0  0  0
   15.8464    8.7666    4.3792 C   0  0  0  0  0  0  0  0  0  0  0  0
   14.8926    9.2396    3.4627 N   0  3  0  0  0  0  0  0  0  0  0  0
   13.6677    9.2601    1.5365 O   0  0  0  0  0  0  0  0  0  0  0  0
   15.3557    6.9279    0.6400 C   0  0  0  0  0  0  0  0  0  0  0  0
   16.2447    5.8473    0.5984 C   0  0  0  0  0  0  0  0  0  0  0  0
   14.2161    5.9987   -1.2868 C   0  0  0  0  0  0  0  0  0  0  0  0
   15.0516    4.8714   -1.2775 C   0  0  0  0  0  0  0  0  0  0  0  0
   13.8003    2.4391   -4.5934 N   0  0  0  0  0  0  0  0  0  0  0  0
   13.1566    2.5043   -5.8185 C   0  0  0  0  0  0  0  0  0  0  0  0
   13.7795    2.8679   -6.8182 O   0  0  0  0  0  0  0  0  0  0  0  0
   11.6347    2.1721   -5.9590 C   0  0  0  0  0  0  0  0  0  0  0  0
   11.1781    1.0677   -5.1865 O   0  0  0  0  0  0  0  0  0  0  0  0
   10.8033    3.4018   -5.5908 C   0  0  0  0  0  0  0  0  0  0  0  0
   11.3695    1.8081   -7.4306 C   0  0  0  0  0  0  0  0  0  0  0  0
   16.3125    7.6146    2.3032 H   0  0  0  0  0  0  0  0  0  0  0  0
   15.7631    1.9113   -4.1664 H   0  0  0  0  0  0  0  0  0  0  0  0
   15.6282    3.0103   -5.5320 H   0  0  0  0  0  0  0  0  0  0  0  0
   14.9625    4.8734   -4.0548 H   0  0  0  0  0  0  0  0  0  0  0  0
   16.5140    4.2004   -3.5503 H   0  0  0  0  0  0  0  0  0  0  0  0
   15.4215    2.8491   -1.8111 H   0  0  0  0  0  0  0  0  0  0  0  0
   12.7553    4.0705   -2.6621 H   0  0  0  0  0  0  0  0  0  0  0  0
   13.0283    2.9469   -1.3295 H   0  0  0  0  0  0  0  0  0  0  0  0
   12.1763    1.8249   -3.3539 H   0  0  0  0  0  0  0  0  0  0  0  0
   13.7696    1.2055   -2.9302 H   0  0  0  0  0  0  0  0  0  0  0  0
   16.7702    3.9796   -0.3091 H   0  0  0  0  0  0  0  0  0  0  0  0
   15.4909    8.8862    8.9578 H   0  0  0  0  0  0  0  0  0  0  0  0
   13.3789   10.7688    3.6151 H   0  0  0  0  0  0  0  0  0  0  0  0
   13.6544    7.8414   -0.3512 H   0  0  0  0  0  0  0  0  0  0  0  0
   16.7615    7.9542    6.9636 H   0  0  0  0  0  0  0  0  0  0  0  0
   12.6677   11.0923    6.4752 H   0  0  0  0  0  0  0  0  0  0  0  0
   16.6964    8.1809    4.0702 H   0  0  0  0  0  0  0  0  0  0  0  0
   17.0467    5.7592    1.3257 H   0  0  0  0  0  0  0  0  0  0  0  0
   13.4301    6.0998   -2.0323 H   0  0  0  0  0  0  0  0  0  0  0  0
   11.7312    0.3054   -5.4318 H   0  0  0  0  0  0  0  0  0  0  0  0
    9.7311    3.2060   -5.7195 H   0  0  0  0  0  0  0  0  0  0  0  0
   11.0701    4.2657   -6.2100 H   0  0  0  0  0  0  0  0  0  0  0  0
   10.9483    3.6836   -4.5432 H   0  0  0  0  0  0  0  0  0  0  0  0
   10.3181    1.5502   -7.5963 H   0  0  0  0  0  0  0  0  0  0  0  0
   11.9597    0.9266   -7.7121 H   0  0  0  0  0  0  0  0  0  0  0  0
   11.6385    2.6221   -8.1132 H   0  0  0  0  0  0  0  0  0  0  0  0
  1  8  1  0  0  0  0
  1 21  1  0  0  0  0
  1 32  1  0  0  0  0
  2  3  1  0  0  0  0
  2 25  1  0  0  0  0
  2 33  1  0  0  0  0
  2 34  1  0  0  0  0
  3  4  1  0  0  0  0
  3 35  1  0  0  0  0
  3 36  1  0  0  0  0
  4  5  1  0  0  0  0
  4 24  1  0  0  0  0
  4 37  1  0  0  0  0
  5  6  1  0  0  0  0
  5 38  1  0  0  0  0
  5 39  1  0  0  0  0
  6 25  1  0  0  0  0
  6 40  1  0  0  0  0
  6 41  1  0  0  0  0
  7 22  2  0  0  0  0
  7 24  1  0  0  0  0
  7 42  1  0  0  0  0
  8 19  1  0  0  0  0
  8 20  2  0  0  0  0
  9 11  1  0  0  0  0
  9 16  1  0  0  0  0
  9 18  2  0  0  0  0
 10 15  1  0  0  0  0
 10 16  2  0  0  0  0
 10 43  1  0  0  0  0
 11 12  2  0  0  0  0
 11 17  1  0  0  0  0
 12 19  1  0  0  0  0
 12 44  1  0  0  0  0
 13 21  2  0  0  0  0
 13 23  1  0  0  0  0
 13 45  1  0  0  0  0
 14 15  1  0  0  0  0
 15 17  2  0  0  0  0
 16 46  1  0  0  0  0
 17 47  1  0  0  0  0
 18 19  1  0  0  0  0
 18 48  1  0  0  0  0
 21 22  1  0  0  0  0
 22 49  1  0  0  0  0
 23 24  2  0  0  0  0
 23 50  1  0  0  0  0
 25 26  1  0  0  0  0
 26 27  2  0  0  0  0
 26 28  1  0  0  0  0
 28 29  1  0  0  0  0
 28 30  1  0  0  0  0
 28 31  1  0  0  0  0
 29 51  1  0  0  0  0
 30 52  1  0  0  0  0
 30 53  1  0  0  0  0
 30 54  1  0  0  0  0
 31 55  1  0  0  0  0
 31 56  1  0  0  0  0
 31 57  1  0  0  0  0
M  CHG  1  19   1
M  END
$$$$
