8JH
 OpenBabel04161911273D

 62 62  0  0  1  0  0  0  0  0999 V2000
    8.1973  -44.6419    1.7657 C   0  0  0  0  0  0  0  0  0  0  0  0
   12.2293  -40.1367    7.0064 C   0  0  0  0  0  0  0  0  0  0  0  0
   13.0063  -40.4111    9.3578 C   0  0  0  0  0  0  0  0  0  0  0  0
   13.9883  -40.3210   11.5520 C   0  0  0  0  0  0  0  0  0  0  0  0
   15.4891  -40.5091   11.6472 C   0  0  0  0  0  0  0  0  0  0  0  0
   16.2720  -39.9105   12.6457 C   0  0  0  0  0  0  0  0  0  0  0  0
   17.6593  -40.1291   12.6932 C   0  0  0  0  0  0  0  0  0  0  0  0
   16.1218  -41.3190   10.6980 C   0  0  0  0  0  0  0  0  0  0  0  0
   11.5566  -38.6628    6.1319 P   0  0  2  0  0  0  0  0  0  0  0  0
   10.1947  -38.7754    3.7289 C   0  0  1  0  0  0  0  0  0  0  0  0
   11.3389  -39.2741    4.5204 N   0  0  0  0  0  0  0  0  0  0  0  0
   12.6019  -37.5845    6.1224 O   0  0  0  0  0  0  0  0  0  0  0  0
   10.5656  -38.8436    2.2421 C   0  0  0  0  0  0  0  0  0  0  0  0
    9.1578  -40.9921    4.1572 N   0  0  0  0  0  0  0  0  0  0  0  0
    7.8066  -39.1660    3.9060 O   0  0  0  0  0  0  0  0  0  0  0  0
    9.4845  -38.3110    1.2871 C   0  0  0  0  0  0  0  0  0  0  0  0
    9.2263  -45.7072    1.7428 N   0  3  0  0  0  0  0  0  0  0  0  0
   10.1800  -38.3624    6.6419 O   0  0  0  0  0  0  0  0  0  0  0  0
    9.8104  -38.7122   -0.1526 C   0  0  0  0  0  0  0  0  0  0  0  0
   12.9247  -39.7277    8.2178 N   0  0  0  0  0  0  0  0  0  0  0  0
   13.6526  -39.6821   10.3051 O   0  0  0  0  0  0  0  0  0  0  0  0
    9.3469  -36.7967    1.3967 C   0  0  0  0  0  0  0  0  0  0  0  0
   12.5902  -41.5763    9.4849 O   0  0  0  0  0  0  0  0  0  0  0  0
    8.9463  -39.6274    3.9945 C   0  0  0  0  0  0  0  0  0  0  0  0
    8.0529  -41.8884    4.3851 C   0  0  0  0  0  0  0  0  0  0  0  0
    7.6304  -42.5633    3.0842 C   0  0  0  0  0  0  0  0  0  0  0  0
    8.7269  -43.5068    2.6059 C   0  0  0  0  0  0  0  0  0  0  0  0
   18.2659  -40.9551   11.7472 C   0  0  0  0  0  0  0  0  0  0  0  0
   17.4969  -41.5310   10.7378 C   0  0  0  0  0  0  0  0  0  0  0  0
    7.2953  -45.0848    2.1891 H   0  0  0  0  0  0  0  0  0  0  0  0
    8.0285  -44.3391    0.7324 H   0  0  0  0  0  0  0  0  0  0  0  0
   12.9404  -40.6685    6.3642 H   0  0  0  0  0  0  0  0  0  0  0  0
   11.3937  -40.7938    7.2542 H   0  0  0  0  0  0  0  0  0  0  0  0
   13.6477  -39.6885   12.3815 H   0  0  0  0  0  0  0  0  0  0  0  0
   13.4929  -41.2933   11.6295 H   0  0  0  0  0  0  0  0  0  0  0  0
   15.8202  -39.2660   13.3966 H   0  0  0  0  0  0  0  0  0  0  0  0
   18.2633  -39.6541   13.4646 H   0  0  0  0  0  0  0  0  0  0  0  0
   15.5323  -41.7887    9.9144 H   0  0  0  0  0  0  0  0  0  0  0  0
    9.9835  -37.7457    4.0216 H   0  0  0  0  0  0  0  0  0  0  0  0
   11.9605  -39.9729    4.1466 H   0  0  0  0  0  0  0  0  0  0  0  0
   10.7670  -39.8896    1.9786 H   0  0  0  0  0  0  0  0  0  0  0  0
   11.4833  -38.2621    2.0842 H   0  0  0  0  0  0  0  0  0  0  0  0
   10.1148  -41.3125    4.2040 H   0  0  0  0  0  0  0  0  0  0  0  0
    8.5250  -38.7631    1.5495 H   0  0  0  0  0  0  0  0  0  0  0  0
    8.9201  -46.5115    1.1815 H   0  0  0  0  0  0  0  0  0  0  0  0
   10.1080  -45.3547    1.3453 H   0  0  0  0  0  0  0  0  0  0  0  0
    9.0423  -38.3343   -0.8383 H   0  0  0  0  0  0  0  0  0  0  0  0
    9.8461  -39.8059   -0.2444 H   0  0  0  0  0  0  0  0  0  0  0  0
   10.7828  -38.3069   -0.4590 H   0  0  0  0  0  0  0  0  0  0  0  0
   13.3699  -38.8076    8.2065 H   0  0  0  0  0  0  0  0  0  0  0  0
    9.1136  -36.5082    2.4267 H   0  0  0  0  0  0  0  0  0  0  0  0
    8.5376  -36.4414    0.7484 H   0  0  0  0  0  0  0  0  0  0  0  0
   10.2787  -36.3014    1.0976 H   0  0  0  0  0  0  0  0  0  0  0  0
    7.2048  -41.3348    4.7943 H   0  0  0  0  0  0  0  0  0  0  0  0
    8.3652  -42.6502    5.1073 H   0  0  0  0  0  0  0  0  0  0  0  0
    7.4428  -41.8014    2.3189 H   0  0  0  0  0  0  0  0  0  0  0  0
    6.7078  -43.1250    3.2633 H   0  0  0  0  0  0  0  0  0  0  0  0
    9.4416  -42.9281    2.0113 H   0  0  0  0  0  0  0  0  0  0  0  0
    9.2427  -43.9129    3.4833 H   0  0  0  0  0  0  0  0  0  0  0  0
   19.3334  -41.1523   11.7941 H   0  0  0  0  0  0  0  0  0  0  0  0
   17.9632  -42.1428    9.9713 H   0  0  0  0  0  0  0  0  0  0  0  0
    9.4236  -46.0429    2.6971 H   0  0  0  0  0  0  0  0  0  0  0  0
  1 17  1  0  0  0  0
  1 27  1  0  0  0  0
  1 30  1  0  0  0  0
  1 31  1  0  0  0  0
  2 20  1  0  0  0  0
  2 32  1  0  0  0  0
  2 33  1  0  0  0  0
  3 20  1  0  0  0  0
  3 21  1  0  0  0  0
  3 23  2  0  0  0  0
  4  5  1  0  0  0  0
  4 21  1  0  0  0  0
  4 34  1  0  0  0  0
  4 35  1  0  0  0  0
  5  6  2  0  0  0  0
  5  8  1  0  0  0  0
  6  7  1  0  0  0  0
  6 36  1  0  0  0  0
  7 28  2  0  0  0  0
  7 37  1  0  0  0  0
  8 29  2  0  0  0  0
  8 38  1  0  0  0  0
  9  2  1  1  0  0  0
  9 11  1  0  0  0  0
  9 12  2  0  0  0  0
  9 18  1  0  0  0  0
 10 11  1  0  0  0  0
 10 13  1  0  0  0  0
 10 24  1  0  0  0  0
 10 39  1  1  0  0  0
 11 40  1  0  0  0  0
 13 16  1  0  0  0  0
 13 41  1  0  0  0  0
 13 42  1  0  0  0  0
 14 24  1  0  0  0  0
 14 25  1  0  0  0  0
 14 43  1  0  0  0  0
 15 24  2  0  0  0  0
 16 19  1  0  0  0  0
 16 22  1  0  0  0  0
 16 44  1  0  0  0  0
 17 45  1  0  0  0  0
 17 46  1  0  0  0  0
 17 62  1  0  0  0  0
 19 47  1  0  0  0  0
 19 48  1  0  0  0  0
 19 49  1  0  0  0  0
 20 50  1  0  0  0  0
 22 51  1  0  0  0  0
 22 52  1  0  0  0  0
 22 53  1  0  0  0  0
 25 26  1  0  0  0  0
 25 54  1  0  0  0  0
 25 55  1  0  0  0  0
 26 27  1  0  0  0  0
 26 56  1  0  0  0  0
 26 57  1  0  0  0  0
 27 58  1  0  0  0  0
 27 59  1  0  0  0  0
 28 29  1  0  0  0  0
 28 60  1  0  0  0  0
 29 61  1  0  0  0  0
M  CHG  1  17   1
M  END
$$$$
