8JS
 OpenBabel04161912033D

 33 34  0  0  0  0  0  0  0  0999 V2000
    1.7190    8.9965   82.2820 C   0  0  0  0  0  0  0  0  0  0  0  0
    0.9022    8.3004   84.4510 C   0  0  0  0  0  0  0  0  0  0  0  0
   -0.3381    3.6672   84.7258 C   0  0  0  0  0  0  0  0  0  0  0  0
   -2.5130    4.7203   84.7922 C   0  0  0  0  0  0  0  0  0  0  0  0
    2.7847    9.6618   82.8957 C   0  0  0  0  0  0  0  0  0  0  0  0
    1.9574    8.9854   85.0628 C   0  0  0  0  0  0  0  0  0  0  0  0
   -0.8352    2.5762   85.4384 C   0  0  0  0  0  0  0  0  0  0  0  0
   -3.0191    3.6329   85.5026 C   0  0  0  0  0  0  0  0  0  0  0  0
    0.7846    8.2984   83.0537 C   0  0  0  0  0  0  0  0  0  0  0  0
   -1.1763    4.7375   84.3897 C   0  0  0  0  0  0  0  0  0  0  0  0
    2.8858    9.6601   84.2805 C   0  0  0  0  0  0  0  0  0  0  0  0
   -2.1750    2.5727   85.8318 C   0  0  0  0  0  0  0  0  0  0  0  0
   -1.1255    6.6747   82.7801 C   0  0  0  0  0  0  0  0  0  0  0  0
   -2.1993   -0.1159   86.0716 N   0  0  0  0  0  0  0  0  0  0  0  0
   -0.2796    7.6787   82.3732 N   0  0  0  0  0  0  0  0  0  0  0  0
   -0.5896    5.8197   83.7153 N   0  0  0  0  0  0  0  0  0  0  0  0
   -2.1804    1.3205   88.1133 O   0  0  0  0  0  0  0  0  0  0  0  0
   -4.2367    1.1930   86.6485 O   0  0  0  0  0  0  0  0  0  0  0  0
    3.8991   10.3134   84.8707 F   0  0  0  0  0  0  0  0  0  0  0  0
   -2.5692    6.5213   81.9525 S   0  0  0  0  0  0  0  0  0  0  0  0
   -2.8051    1.2499   86.8122 S   0  0  0  0  0  0  0  0  0  0  0  0
    1.6469    9.0070   81.1979 H   0  0  0  0  0  0  0  0  0  0  0  0
    0.1563    7.8293   85.0852 H   0  0  0  0  0  0  0  0  0  0  0  0
    0.7059    3.6658   84.4177 H   0  0  0  0  0  0  0  0  0  0  0  0
   -3.1735    5.5629   84.6039 H   0  0  0  0  0  0  0  0  0  0  0  0
    3.5257   10.1851   82.3024 H   0  0  0  0  0  0  0  0  0  0  0  0
    2.0400    9.0196   86.1473 H   0  0  0  0  0  0  0  0  0  0  0  0
   -0.1676    1.7573   85.6980 H   0  0  0  0  0  0  0  0  0  0  0  0
   -4.0571    3.6396   85.8239 H   0  0  0  0  0  0  0  0  0  0  0  0
   -2.5237   -1.0069   86.4404 H   0  0  0  0  0  0  0  0  0  0  0  0
   -1.7197   -0.0604   85.1793 H   0  0  0  0  0  0  0  0  0  0  0  0
   -0.5123    8.0504   81.4577 H   0  0  0  0  0  0  0  0  0  0  0  0
    0.4230    5.8348   83.7218 H   0  0  0  0  0  0  0  0  0  0  0  0
  1  5  2  0  0  0  0
  1  9  1  0  0  0  0
  1 22  1  0  0  0  0
  2  6  1  0  0  0  0
  2  9  2  0  0  0  0
  2 23  1  0  0  0  0
  3  7  2  0  0  0  0
  3 10  1  0  0  0  0
  3 24  1  0  0  0  0
  4  8  1  0  0  0  0
  4 10  2  0  0  0  0
  4 25  1  0  0  0  0
  5 11  1  0  0  0  0
  5 26  1  0  0  0  0
  6 11  2  0  0  0  0
  6 27  1  0  0  0  0
  7 12  1  0  0  0  0
  7 28  1  0  0  0  0
  8 12  2  0  0  0  0
  8 29  1  0  0  0  0
  9 15  1  0  0  0  0
 10 16  1  0  0  0  0
 11 19  1  0  0  0  0
 12 21  1  0  0  0  0
 13 15  1  0  0  0  0
 13 16  1  0  0  0  0
 13 20  2  0  0  0  0
 14 21  1  0  0  0  0
 14 30  1  0  0  0  0
 14 31  1  0  0  0  0
 15 32  1  0  0  0  0
 16 33  1  0  0  0  0
 17 21  2  0  0  0  0
 18 21  2  0  0  0  0
M  END
$$$$
