8KK
 OpenBabel04161911263D

 59 59  0  0  1  0  0  0  0  0999 V2000
   12.2067   40.1824   -6.9578 C   0  0  0  0  0  0  0  0  0  0  0  0
   12.9994   40.4265   -9.3235 C   0  0  0  0  0  0  0  0  0  0  0  0
   13.9467   40.3810  -11.4968 C   0  0  0  0  0  0  0  0  0  0  0  0
   15.4448   40.5633  -11.6201 C   0  0  0  0  0  0  0  0  0  0  0  0
   16.1097   41.3656  -10.6855 C   0  0  0  0  0  0  0  0  0  0  0  0
   17.4883   41.5555  -10.7556 C   0  0  0  0  0  0  0  0  0  0  0  0
   18.2242   40.9556  -11.7727 C   0  0  0  0  0  0  0  0  0  0  0  0
   12.5876   37.6296   -6.0649 O   0  0  0  0  0  0  0  0  0  0  0  0
   11.5222   38.6972   -6.0930 P   0  0  1  0  0  0  0  0  0  0  0  0
   11.3252   39.2908   -4.4812 N   0  0  0  0  0  0  0  0  0  0  0  0
   10.1820   38.7760   -3.7095 C   0  0  1  0  0  0  0  0  0  0  0  0
   10.5627   38.8522   -2.2172 C   0  0  0  0  0  0  0  0  0  0  0  0
    9.4769   38.3221   -1.2701 C   0  0  0  0  0  0  0  0  0  0  0  0
    9.7963   38.6955    0.1722 C   0  0  0  0  0  0  0  0  0  0  0  0
    9.3496   36.8099   -1.3905 C   0  0  0  0  0  0  0  0  0  0  0  0
    8.9232   39.6358   -3.9744 C   0  0  0  0  0  0  0  0  0  0  0  0
    9.1499   41.0085   -4.0482 N   0  0  0  0  0  0  0  0  0  0  0  0
    8.0481   41.9259   -4.2306 C   0  0  0  0  0  0  0  0  0  0  0  0
    8.3313   43.2269   -3.5000 C   0  0  0  0  0  0  0  0  0  0  0  0
    8.7227   42.9994   -2.0529 C   0  0  0  0  0  0  0  0  0  0  0  0
    8.9420   44.3336   -1.4352 N   0  3  0  0  0  0  0  0  0  0  0  0
    7.7901   39.2089   -3.8448 O   0  0  0  0  0  0  0  0  0  0  0  0
   10.1330   38.4210   -6.6011 O   0  0  0  0  0  0  0  0  0  0  0  0
   12.9210   39.7401   -8.1420 N   0  0  0  0  0  0  0  0  0  0  0  0
   13.6355   39.7030  -10.2650 O   0  0  0  0  0  0  0  0  0  0  0  0
   17.5811   40.1461  -12.7072 C   0  0  0  0  0  0  0  0  0  0  0  0
   16.1966   39.9525  -12.6351 C   0  0  0  0  0  0  0  0  0  0  0  0
   12.5825   41.5752   -9.4523 O   0  0  0  0  0  0  0  0  0  0  0  0
   12.9138   40.7069   -6.3033 H   0  0  0  0  0  0  0  0  0  0  0  0
   11.3907   40.8617   -7.2173 H   0  0  0  0  0  0  0  0  0  0  0  0
   13.5794   39.7754  -12.3361 H   0  0  0  0  0  0  0  0  0  0  0  0
   13.4590   41.3636  -11.5775 H   0  0  0  0  0  0  0  0  0  0  0  0
   15.5420   41.8394   -9.8885 H   0  0  0  0  0  0  0  0  0  0  0  0
   17.9834   42.1706  -10.0101 H   0  0  0  0  0  0  0  0  0  0  0  0
   19.2967   41.1180  -11.8337 H   0  0  0  0  0  0  0  0  0  0  0  0
   11.9846   39.9307   -4.0640 H   0  0  0  0  0  0  0  0  0  0  0  0
    9.9622   37.7459   -3.9993 H   0  0  0  0  0  0  0  0  0  0  0  0
   10.7843   39.8941   -1.9510 H   0  0  0  0  0  0  0  0  0  0  0  0
   11.4874   38.2791   -2.0531 H   0  0  0  0  0  0  0  0  0  0  0  0
    8.5152   38.7786   -1.5210 H   0  0  0  0  0  0  0  0  0  0  0  0
    9.0173   38.3210    0.8442 H   0  0  0  0  0  0  0  0  0  0  0  0
    9.8487   39.7831    0.2848 H   0  0  0  0  0  0  0  0  0  0  0  0
   10.7552   38.2686    0.4829 H   0  0  0  0  0  0  0  0  0  0  0  0
    9.1173   36.5179   -2.4166 H   0  0  0  0  0  0  0  0  0  0  0  0
    8.5468   36.4414   -0.7459 H   0  0  0  0  0  0  0  0  0  0  0  0
   10.2840   36.3197   -1.0963 H   0  0  0  0  0  0  0  0  0  0  0  0
   10.1085   41.2881   -4.2092 H   0  0  0  0  0  0  0  0  0  0  0  0
    7.1224   41.4790   -3.8508 H   0  0  0  0  0  0  0  0  0  0  0  0
    7.9071   42.1288   -5.2992 H   0  0  0  0  0  0  0  0  0  0  0  0
    7.4405   43.8638   -3.5396 H   0  0  0  0  0  0  0  0  0  0  0  0
    9.1477   43.7542   -4.0082 H   0  0  0  0  0  0  0  0  0  0  0  0
    9.6660   42.4544   -1.9525 H   0  0  0  0  0  0  0  0  0  0  0  0
    7.9350   42.5052   -1.4785 H   0  0  0  0  0  0  0  0  0  0  0  0
    9.2164   44.2457   -0.4493 H   0  0  0  0  0  0  0  0  0  0  0  0
    9.6882   44.8461   -1.9256 H   0  0  0  0  0  0  0  0  0  0  0  0
   13.3152   38.7985   -8.0910 H   0  0  0  0  0  0  0  0  0  0  0  0
   18.1605   39.6621  -13.4894 H   0  0  0  0  0  0  0  0  0  0  0  0
   15.7156   39.3158  -13.3737 H   0  0  0  0  0  0  0  0  0  0  0  0
    8.0880   44.9012   -1.4796 H   0  0  0  0  0  0  0  0  0  0  0  0
  1 24  1  0  0  0  0
  1 29  1  0  0  0  0
  1 30  1  0  0  0  0
  2 24  1  0  0  0  0
  2 25  1  0  0  0  0
  2 28  2  0  0  0  0
  3  4  1  0  0  0  0
  3 25  1  0  0  0  0
  3 31  1  0  0  0  0
  3 32  1  0  0  0  0
  4  5  2  0  0  0  0
  4 27  1  0  0  0  0
  5  6  1  0  0  0  0
  5 33  1  0  0  0  0
  6  7  2  0  0  0  0
  6 34  1  0  0  0  0
  7 26  1  0  0  0  0
  7 35  1  0  0  0  0
  8  9  2  0  0  0  0
  9  1  1  6  0  0  0
  9 10  1  0  0  0  0
  9 23  1  0  0  0  0
 10 11  1  0  0  0  0
 10 36  1  0  0  0  0
 11 12  1  0  0  0  0
 11 16  1  0  0  0  0
 11 37  1  6  0  0  0
 12 13  1  0  0  0  0
 12 38  1  0  0  0  0
 12 39  1  0  0  0  0
 13 14  1  0  0  0  0
 13 15  1  0  0  0  0
 13 40  1  0  0  0  0
 14 41  1  0  0  0  0
 14 42  1  0  0  0  0
 14 43  1  0  0  0  0
 15 44  1  0  0  0  0
 15 45  1  0  0  0  0
 15 46  1  0  0  0  0
 16 17  1  0  0  0  0
 16 22  2  0  0  0  0
 17 18  1  0  0  0  0
 17 47  1  0  0  0  0
 18 19  1  0  0  0  0
 18 48  1  0  0  0  0
 18 49  1  0  0  0  0
 19 20  1  0  0  0  0
 19 50  1  0  0  0  0
 19 51  1  0  0  0  0
 20 21  1  0  0  0  0
 20 52  1  0  0  0  0
 20 53  1  0  0  0  0
 21 54  1  0  0  0  0
 21 55  1  0  0  0  0
 21 59  1  0  0  0  0
 24 56  1  0  0  0  0
 26 27  2  0  0  0  0
 26 57  1  0  0  0  0
 27 58  1  0  0  0  0
M  CHG  1  21   1
M  END
$$$$
