8LC
 OpenBabel04161909343D

 58 59  0  0  0  0  0  0  0  0999 V2000
  -21.8903   12.8885  -25.0582 C   0  0  0  0  0  0  0  0  0  0  0  0
  -22.2171   12.5753  -26.3806 C   0  0  0  0  0  0  0  0  0  0  0  0
  -22.5062   11.2437  -26.6967 C   0  0  0  0  0  0  0  0  0  0  0  0
  -22.4089   10.2364  -25.7300 C   0  0  0  0  0  0  0  0  0  0  0  0
  -22.1033   10.5606  -24.4132 C   0  0  0  0  0  0  0  0  0  0  0  0
  -21.8553   11.8878  -24.0887 C   0  0  0  0  0  0  0  0  0  0  0  0
  -22.3011   13.5810  -27.4984 C   0  0  0  0  0  0  0  0  0  0  0  0
  -22.5334   13.2739  -28.6424 O   0  0  0  0  0  0  0  0  0  0  0  0
  -22.1268   14.8920  -27.1066 N   0  0  0  0  0  0  0  0  0  0  0  0
  -22.1611   15.9858  -28.0302 C   0  0  0  0  0  0  0  0  0  0  0  0
  -22.3955   17.2884  -27.2846 C   0  0  0  0  0  0  0  0  0  0  0  0
  -22.2073   18.4686  -28.2160 C   0  0  0  0  0  0  0  0  0  0  0  0
  -22.6697   19.8102  -27.6498 C   0  0  0  0  0  0  0  0  0  0  0  0
  -22.1396   20.1492  -26.2563 C   0  0  0  0  0  0  0  0  0  0  0  0
  -20.6130   20.0996  -26.2035 C   0  0  0  0  0  0  0  0  0  0  0  0
  -20.0282   20.7818  -24.9648 C   0  0  0  0  0  0  0  0  0  0  0  0
  -20.4239   20.0777  -23.6750 C   0  0  0  0  0  0  0  0  0  0  0  0
  -19.7674   18.8051  -23.5174 N   0  0  0  0  0  0  0  0  0  0  0  0
  -18.4818   18.6805  -23.0310 C   0  0  0  0  0  0  0  0  0  0  0  0
  -18.0013   17.2748  -22.8142 C   0  0  0  0  0  0  0  0  0  0  0  0
  -18.8078   16.1291  -22.8423 C   0  0  0  0  0  0  0  0  0  0  0  0
  -18.2476   14.8477  -22.7485 C   0  0  0  0  0  0  0  0  0  0  0  0
  -16.8848   14.6997  -22.5485 C   0  0  0  0  0  0  0  0  0  0  0  0
  -16.0843   15.8412  -22.4711 C   0  0  0  0  0  0  0  0  0  0  0  0
  -16.6290   17.1195  -22.6289 C   0  0  0  0  0  0  0  0  0  0  0  0
  -17.7657   19.6352  -22.8324 O   0  0  0  0  0  0  0  0  0  0  0  0
  -21.5916   12.2185  -22.7910 O   0  0  0  0  0  0  0  0  0  0  0  0
  -20.1786   16.2201  -22.9502 O   0  0  0  0  0  0  0  0  0  0  0  0
  -19.0301   13.7348  -22.8597 O   0  0  0  0  0  0  0  0  0  0  0  0
  -21.5928   14.1735  -24.6279 O   0  0  0  0  0  0  0  0  0  0  0  0
  -22.8210   10.9674  -27.6984 H   0  0  0  0  0  0  0  0  0  0  0  0
  -22.5733    9.1993  -26.0196 H   0  0  0  0  0  0  0  0  0  0  0  0
  -22.0806    9.7770  -23.6603 H   0  0  0  0  0  0  0  0  0  0  0  0
  -21.9260   15.0577  -26.1299 H   0  0  0  0  0  0  0  0  0  0  0  0
  -22.9687   15.8096  -28.7468 H   0  0  0  0  0  0  0  0  0  0  0  0
  -21.2075   16.0143  -28.5690 H   0  0  0  0  0  0  0  0  0  0  0  0
  -21.6847   17.3724  -26.4567 H   0  0  0  0  0  0  0  0  0  0  0  0
  -23.4128   17.3084  -26.8818 H   0  0  0  0  0  0  0  0  0  0  0  0
  -22.7684   18.2640  -29.1339 H   0  0  0  0  0  0  0  0  0  0  0  0
  -21.1419   18.5327  -28.4603 H   0  0  0  0  0  0  0  0  0  0  0  0
  -23.7650   19.8196  -27.6214 H   0  0  0  0  0  0  0  0  0  0  0  0
  -22.3422   20.5899  -28.3495 H   0  0  0  0  0  0  0  0  0  0  0  0
  -22.5500   19.4398  -25.5287 H   0  0  0  0  0  0  0  0  0  0  0  0
  -22.4729   21.1563  -25.9767 H   0  0  0  0  0  0  0  0  0  0  0  0
  -20.2259   20.5837  -27.1068 H   0  0  0  0  0  0  0  0  0  0  0  0
  -20.3043   19.0499  -26.2192 H   0  0  0  0  0  0  0  0  0  0  0  0
  -20.3825   21.8194  -24.9153 H   0  0  0  0  0  0  0  0  0  0  0  0
  -18.9346   20.8038  -25.0493 H   0  0  0  0  0  0  0  0  0  0  0  0
  -21.4993   19.8872  -23.6646 H   0  0  0  0  0  0  0  0  0  0  0  0
  -20.1685   20.6976  -22.8112 H   0  0  0  0  0  0  0  0  0  0  0  0
  -20.2632   17.9583  -23.7651 H   0  0  0  0  0  0  0  0  0  0  0  0
  -16.4261   13.7210  -22.4453 H   0  0  0  0  0  0  0  0  0  0  0  0
  -15.0156   15.7506  -22.2918 H   0  0  0  0  0  0  0  0  0  0  0  0
  -15.9787   17.9931  -22.6143 H   0  0  0  0  0  0  0  0  0  0  0  0
  -21.4336   13.1718  -22.7761 H   0  0  0  0  0  0  0  0  0  0  0  0
  -20.4188   15.7573  -23.7747 H   0  0  0  0  0  0  0  0  0  0  0  0
  -19.9336   14.0431  -23.0031 H   0  0  0  0  0  0  0  0  0  0  0  0
  -22.2596   14.3969  -23.9440 H   0  0  0  0  0  0  0  0  0  0  0  0
  1  2  2  0  0  0  0
  1  6  1  0  0  0  0
  1 30  1  0  0  0  0
  2  3  1  0  0  0  0
  2  7  1  0  0  0  0
  3  4  2  0  0  0  0
  3 31  1  0  0  0  0
  4  5  1  0  0  0  0
  4 32  1  0  0  0  0
  5  6  2  0  0  0  0
  5 33  1  0  0  0  0
  6 27  1  0  0  0  0
  7  8  2  0  0  0  0
  7  9  1  0  0  0  0
  9 10  1  0  0  0  0
  9 34  1  0  0  0  0
 10 11  1  0  0  0  0
 10 35  1  0  0  0  0
 10 36  1  0  0  0  0
 11 12  1  0  0  0  0
 11 37  1  0  0  0  0
 11 38  1  0  0  0  0
 12 13  1  0  0  0  0
 12 39  1  0  0  0  0
 12 40  1  0  0  0  0
 13 14  1  0  0  0  0
 13 41  1  0  0  0  0
 13 42  1  0  0  0  0
 14 15  1  0  0  0  0
 14 43  1  0  0  0  0
 14 44  1  0  0  0  0
 15 16  1  0  0  0  0
 15 45  1  0  0  0  0
 15 46  1  0  0  0  0
 16 17  1  0  0  0  0
 16 47  1  0  0  0  0
 16 48  1  0  0  0  0
 17 18  1  0  0  0  0
 17 49  1  0  0  0  0
 17 50  1  0  0  0  0
 18 19  1  0  0  0  0
 18 51  1  0  0  0  0
 19 20  1  0  0  0  0
 19 26  2  0  0  0  0
 20 21  2  0  0  0  0
 20 25  1  0  0  0  0
 21 22  1  0  0  0  0
 21 28  1  0  0  0  0
 22 23  2  0  0  0  0
 22 29  1  0  0  0  0
 23 24  1  0  0  0  0
 23 52  1  0  0  0  0
 24 25  2  0  0  0  0
 24 53  1  0  0  0  0
 25 54  1  0  0  0  0
 27 55  1  0  0  0  0
 28 56  1  0  0  0  0
 29 57  1  0  0  0  0
 30 58  1  0  0  0  0
M  END
$$$$
