8QE
 OpenBabel04161911293D

 45 46  0  0  0  0  0  0  0  0999 V2000
    1.6543   36.4493   49.3537 C   0  0  0  0  0  0  0  0  0  0  0  0
    1.4082   34.0773   49.0054 C   0  0  0  0  0  0  0  0  0  0  0  0
    1.1043   34.2826   47.6734 C   0  0  0  0  0  0  0  0  0  0  0  0
    1.0741   35.5886   47.1945 C   0  0  0  0  0  0  0  0  0  0  0  0
   -0.0505   33.1243   45.8201 C   0  0  0  0  0  0  0  0  0  0  0  0
   -1.6872   32.8794   43.7258 C   0  0  0  0  0  0  0  0  0  0  0  0
   -1.4108   34.1704   44.2016 C   0  0  0  0  0  0  0  0  0  0  0  0
   -2.6150   32.7660   42.6315 C   0  0  0  0  0  0  0  0  0  0  0  0
   -3.3800   32.6054   41.8274 N   0  0  0  0  0  0  0  0  0  0  0  0
   -1.1987   31.6936   44.2521 C   0  0  0  0  0  0  0  0  0  0  0  0
   -1.4850   30.4031   43.7884 N   0  0  0  0  0  0  0  0  0  0  0  0
   -0.3647   31.8639   45.3309 C   0  0  0  0  0  0  0  0  0  0  0  0
   -1.9078   35.3146   43.6274 N   0  0  0  0  0  0  0  0  0  0  0  0
   -1.4712   36.6697   43.8882 C   0  0  0  0  0  0  0  0  0  0  0  0
   -1.9469   37.0895   45.2706 C   0  0  0  0  0  0  0  0  0  0  0  0
   -2.1545   37.4702   42.8026 C   0  0  0  0  0  0  0  0  0  0  0  0
    0.0446   36.8197   43.7738 C   0  0  0  0  0  0  0  0  0  0  0  0
   -0.5829   34.2130   45.2457 N   0  3  0  0  0  0  0  0  0  0  0  0
    0.7996   33.1720   46.9132 N   0  0  0  0  0  0  0  0  0  0  0  0
    1.6816   35.1446   49.8491 C   0  0  0  0  0  0  0  0  0  0  0  0
    1.3411   36.6660   48.0144 C   0  0  0  0  0  0  0  0  0  0  0  0
    1.9821   37.5895   50.2585 C   0  0  0  0  0  0  0  0  0  0  0  0
    1.8867   37.4739   51.4709 O   0  0  0  0  0  0  0  0  0  0  0  0
    2.4049   38.7516   49.6678 N   0  0  0  0  0  0  0  0  0  0  0  0
    1.4522   33.0646   49.3837 H   0  0  0  0  0  0  0  0  0  0  0  0
    0.9196   35.8057   46.1654 H   0  0  0  0  0  0  0  0  0  0  0  0
   -1.1005   29.5529   44.2308 H   0  0  0  0  0  0  0  0  0  0  0  0
   -2.1004   30.2350   42.9755 H   0  0  0  0  0  0  0  0  0  0  0  0
    0.0880   31.0078   45.8249 H   0  0  0  0  0  0  0  0  0  0  0  0
   -2.6905   35.2129   42.9568 H   0  0  0  0  0  0  0  0  0  0  0  0
   -1.5911   38.0946   45.5117 H   0  0  0  0  0  0  0  0  0  0  0  0
   -1.5823   36.3969   46.0371 H   0  0  0  0  0  0  0  0  0  0  0  0
   -3.0416   37.0744   45.2911 H   0  0  0  0  0  0  0  0  0  0  0  0
   -1.8941   38.5203   42.8688 H   0  0  0  0  0  0  0  0  0  0  0  0
   -3.2438   37.3494   42.9101 H   0  0  0  0  0  0  0  0  0  0  0  0
   -1.8618   37.0750   41.8159 H   0  0  0  0  0  0  0  0  0  0  0  0
    0.3411   37.8471   44.0095 H   0  0  0  0  0  0  0  0  0  0  0  0
    0.3724   36.5621   42.7668 H   0  0  0  0  0  0  0  0  0  0  0  0
    0.5526   36.1575   44.4610 H   0  0  0  0  0  0  0  0  0  0  0  0
    1.2541   32.2831   47.1777 H   0  0  0  0  0  0  0  0  0  0  0  0
    1.9246   34.9573   50.8890 H   0  0  0  0  0  0  0  0  0  0  0  0
    1.3082   37.6705   47.6204 H   0  0  0  0  0  0  0  0  0  0  0  0
    2.6461   39.5593   50.2437 H   0  0  0  0  0  0  0  0  0  0  0  0
    2.5123   38.8500   48.6698 H   0  0  0  0  0  0  0  0  0  0  0  0
   -0.3597   35.1148   45.6153 H   0  0  0  0  0  0  0  0  0  0  0  0
  1 20  2  0  0  0  0
  1 21  1  0  0  0  0
  1 22  1  0  0  0  0
  2  3  2  0  0  0  0
  2 20  1  0  0  0  0
  2 25  1  0  0  0  0
  3  4  1  0  0  0  0
  3 19  1  0  0  0  0
  4 21  2  0  0  0  0
  4 26  1  0  0  0  0
  5 12  2  0  0  0  0
  5 18  1  0  0  0  0
  5 19  1  0  0  0  0
  6  7  1  0  0  0  0
  6  8  1  0  0  0  0
  6 10  2  0  0  0  0
  7 13  1  0  0  0  0
  7 18  2  0  0  0  0
  8  9  3  0  0  0  0
 10 11  1  0  0  0  0
 10 12  1  0  0  0  0
 11 27  1  0  0  0  0
 11 28  1  0  0  0  0
 12 29  1  0  0  0  0
 13 14  1  0  0  0  0
 13 30  1  0  0  0  0
 14 15  1  0  0  0  0
 14 16  1  0  0  0  0
 14 17  1  0  0  0  0
 15 31  1  0  0  0  0
 15 32  1  0  0  0  0
 15 33  1  0  0  0  0
 16 34  1  0  0  0  0
 16 35  1  0  0  0  0
 16 36  1  0  0  0  0
 17 37  1  0  0  0  0
 17 38  1  0  0  0  0
 17 39  1  0  0  0  0
 18 45  1  0  0  0  0
 19 40  1  0  0  0  0
 20 41  1  0  0  0  0
 21 42  1  0  0  0  0
 22 23  2  0  0  0  0
 22 24  1  0  0  0  0
 24 43  1  0  0  0  0
 24 44  1  0  0  0  0
M  CHG  1  18   1
M  END
$$$$
