8VE
 OpenBabel04161911313D

 25 26  0  0  1  0  0  0  0  0999 V2000
   -6.0639  -24.4014  -32.1553 N   0  0  0  0  0  0  0  0  0  0  0  0
   -5.0661  -25.1260  -29.1567 N   0  3  0  0  0  0  0  0  0  0  0  0
   -6.6466  -26.1745  -30.6608 C   0  0  1  0  0  0  0  0  0  0  0  0
   -6.2617  -26.1424  -29.1779 C   0  0  1  0  0  0  0  0  0  0  0  0
   -5.4246  -23.0942  -31.9264 C   0  0  0  0  0  0  0  0  0  0  0  0
   -9.2331  -25.4922  -30.6928 C   0  0  0  0  0  0  0  0  0  0  0  0
   -5.8391  -27.5168  -28.4712 C   0  0  0  0  0  0  0  0  0  0  0  0
   -7.7722  -25.2800  -31.1393 C   0  0  0  0  0  0  0  0  0  0  0  0
   -7.4233  -24.3337  -31.9886 N   0  0  0  0  0  0  0  0  0  0  0  0
   -4.3505  -25.3616  -30.4493 C   0  0  0  0  0  0  0  0  0  0  0  0
   -5.4711  -25.5976  -31.4670 C   0  0  2  0  0  0  0  0  0  0  0  0
   -9.4157  -26.5731  -30.0386 O   0  0  0  0  0  0  0  0  0  0  0  0
   -6.6251  -28.4545  -28.5536 O   0  0  0  0  0  0  0  0  0  0  0  0
  -10.0837  -24.6000  -30.9413 O   0  0  0  0  0  0  0  0  0  0  0  0
   -4.6858  -27.4448  -27.9041 O   0  0  0  0  0  0  0  0  0  0  0  0
   -5.4408  -24.1855  -29.0694 H   0  0  0  0  0  0  0  0  0  0  0  0
   -6.8919  -27.1953  -30.9659 H   0  0  0  0  0  0  0  0  0  0  0  0
   -7.0808  -25.7253  -28.5772 H   0  0  0  0  0  0  0  0  0  0  0  0
   -4.3368  -23.0930  -32.0966 H   0  0  0  0  0  0  0  0  0  0  0  0
   -5.6125  -22.7717  -30.8945 H   0  0  0  0  0  0  0  0  0  0  0  0
   -5.8413  -22.3189  -32.5839 H   0  0  0  0  0  0  0  0  0  0  0  0
   -3.6745  -26.2228  -30.3452 H   0  0  0  0  0  0  0  0  0  0  0  0
   -3.7395  -24.4903  -30.6802 H   0  0  0  0  0  0  0  0  0  0  0  0
   -5.1193  -26.3531  -32.1868 H   0  0  0  0  0  0  0  0  0  0  0  0
   -4.4920  -25.3674  -28.3337 H   0  0  0  0  0  0  0  0  0  0  0  0
  1  5  1  0  0  0  0
  1  9  1  0  0  0  0
  1 11  1  0  0  0  0
  2  4  1  0  0  0  0
  2 10  1  0  0  0  0
  2 16  1  0  0  0  0
  2 25  1  0  0  0  0
  3  4  1  0  0  0  0
  3  8  1  0  0  0  0
  3 11  1  0  0  0  0
  3 17  1  6  0  0  0
  4  7  1  0  0  0  0
  4 18  1  1  0  0  0
  5 19  1  0  0  0  0
  5 20  1  0  0  0  0
  5 21  1  0  0  0  0
  6  8  1  0  0  0  0
  6 12  2  0  0  0  0
  6 14  1  0  0  0  0
  7 13  2  0  0  0  0
  7 15  1  0  0  0  0
  8  9  2  0  0  0  0
 10 11  1  0  0  0  0
 10 22  1  0  0  0  0
 10 23  1  0  0  0  0
 11 24  1  6  0  0  0
M  CHG  1   2   1
M  END
$$$$
