8VE
 OpenBabel04161911403D

 25 26  0  0  1  0  0  0  0  0999 V2000
   15.6400   69.5955   23.5951 N   0  0  0  0  0  0  0  0  0  0  0  0
   17.6477   68.4435   21.3104 N   0  3  0  0  0  0  0  0  0  0  0  0
   16.4641   67.4465   23.1657 C   0  0  1  0  0  0  0  0  0  0  0  0
   17.5674   67.1306   22.1600 C   0  0  1  0  0  0  0  0  0  0  0  0
   15.2227   70.9554   23.3123 C   0  0  0  0  0  0  0  0  0  0  0  0
   17.6920   67.3519   25.5716 C   0  0  0  0  0  0  0  0  0  0  0  0
   17.3574   65.8676   21.1998 C   0  0  0  0  0  0  0  0  0  0  0  0
   16.8481   68.0802   24.4949 C   0  0  0  0  0  0  0  0  0  0  0  0
   16.3678   69.3033   24.6829 N   0  0  0  0  0  0  0  0  0  0  0  0
   16.2428   68.9421   21.2241 C   0  0  0  0  0  0  0  0  0  0  0  0
   15.6000   68.5590   22.5527 C   0  0  2  0  0  0  0  0  0  0  0  0
   18.0859   67.9934   26.5813 O   0  0  0  0  0  0  0  0  0  0  0  0
   17.5346   66.1469   19.9659 O   0  0  0  0  0  0  0  0  0  0  0  0
   17.9601   66.1360   25.2821 O   0  0  0  0  0  0  0  0  0  0  0  0
   17.0192   64.8115   21.7471 O   0  0  0  0  0  0  0  0  0  0  0  0
   18.2767   69.0942   21.7753 H   0  0  0  0  0  0  0  0  0  0  0  0
   15.8738   66.5565   23.3935 H   0  0  0  0  0  0  0  0  0  0  0  0
   18.5270   66.9824   22.6715 H   0  0  0  0  0  0  0  0  0  0  0  0
   14.6473   71.0444   22.3783 H   0  0  0  0  0  0  0  0  0  0  0  0
   16.0915   71.6206   23.2369 H   0  0  0  0  0  0  0  0  0  0  0  0
   14.5849   71.3233   24.1241 H   0  0  0  0  0  0  0  0  0  0  0  0
   15.7327   68.4696   20.3728 H   0  0  0  0  0  0  0  0  0  0  0  0
   16.2653   70.0210   21.0524 H   0  0  0  0  0  0  0  0  0  0  0  0
   14.5713   68.2117   22.3906 H   0  0  0  0  0  0  0  0  0  0  0  0
   18.0246   68.1644   20.3888 H   0  0  0  0  0  0  0  0  0  0  0  0
  1  5  1  0  0  0  0
  1  9  1  0  0  0  0
  1 11  1  0  0  0  0
  2  4  1  0  0  0  0
  2 10  1  0  0  0  0
  2 16  1  0  0  0  0
  2 25  1  0  0  0  0
  3  4  1  0  0  0  0
  3  8  1  0  0  0  0
  3 11  1  0  0  0  0
  3 17  1  1  0  0  0
  4  7  1  0  0  0  0
  4 18  1  1  0  0  0
  5 19  1  0  0  0  0
  5 20  1  0  0  0  0
  5 21  1  0  0  0  0
  6  8  1  0  0  0  0
  6 12  2  0  0  0  0
  6 14  1  0  0  0  0
  7 13  2  0  0  0  0
  7 15  1  0  0  0  0
  8  9  2  0  0  0  0
 10 11  1  0  0  0  0
 10 22  1  0  0  0  0
 10 23  1  0  0  0  0
 11 24  1  6  0  0  0
M  CHG  1   2   1
M  END
$$$$
