8W3
 OpenBabel04161912203D

 74 77  0  0  1  0  0  0  0  0999 V2000
   -9.5997  -16.7372   -6.0770 C   0  0  0  0  0  0  0  0  0  0  0  0
   -8.7130  -17.3046   -5.4483 O   0  0  0  0  0  0  0  0  0  0  0  0
  -14.1118  -15.1722   -0.4029 Cl  0  0  0  0  0  0  0  0  0  0  0  0
  -13.0540  -14.4812   -1.5693 C   0  0  0  0  0  0  0  0  0  0  0  0
  -12.1526  -15.2948   -2.2519 C   0  0  0  0  0  0  0  0  0  0  0  0
  -13.0919  -13.1102   -1.8261 C   0  0  0  0  0  0  0  0  0  0  0  0
  -12.2534  -12.5460   -2.7912 C   0  0  0  0  0  0  0  0  0  0  0  0
  -11.3491  -13.3550   -3.4854 C   0  0  0  0  0  0  0  0  0  0  0  0
  -10.5076  -12.9615   -4.4819 O   0  0  0  0  0  0  0  0  0  0  0  0
  -10.4296  -11.5971   -4.8502 C   0  0  0  0  0  0  0  0  0  0  0  0
  -11.2758  -14.7317   -3.1909 C   0  0  0  0  0  0  0  0  0  0  0  0
  -10.2569  -15.5972   -3.9102 C   0  0  0  0  0  0  0  0  0  0  0  0
  -10.6619  -15.9124   -5.3585 C   0  0  2  0  0  0  0  0  0  0  0  0
  -12.0143  -16.5895   -5.4205 C   0  0  0  0  0  0  0  0  0  0  0  0
  -12.5498  -16.8478   -6.7702 N   0  0  0  0  0  0  0  0  0  0  0  0
  -12.0473  -16.6300   -7.9695 C   0  0  0  0  0  0  0  0  0  0  0  0
  -12.7427  -16.9523   -9.0395 N   0  3  0  0  0  0  0  0  0  0  0  0
  -14.0208  -17.4076   -8.7804 O   0  0  0  0  0  0  0  0  0  0  0  0
  -14.7271  -17.9225   -9.8299 C   0  0  0  0  0  0  0  0  0  0  0  0
  -14.3154  -17.9604  -11.1617 C   0  0  0  0  0  0  0  0  0  0  0  0
  -15.1465  -18.5446  -12.1305 C   0  0  0  0  0  0  0  0  0  0  0  0
  -16.3858  -19.0726  -11.7552 C   0  0  0  0  0  0  0  0  0  0  0  0
  -16.8118  -19.0299  -10.4293 C   0  0  0  0  0  0  0  0  0  0  0  0
  -15.9704  -18.4447   -9.4669 C   0  0  0  0  0  0  0  0  0  0  0  0
  -10.7117  -15.9957   -8.1675 C   0  0  0  0  0  0  0  0  0  0  0  0
   -9.7435  -16.8189   -7.4697 N   0  0  0  0  0  0  0  0  0  0  0  0
   -8.9580  -17.5970   -8.3272 C   0  0  0  0  0  0  0  0  0  0  0  0
   -9.1649  -17.6082   -9.5419 O   0  0  0  0  0  0  0  0  0  0  0  0
   -8.0086  -18.3422   -7.7513 N   0  0  0  0  0  0  0  0  0  0  0  0
   -6.9947  -19.0637   -8.5069 C   0  0  2  0  0  0  0  0  0  0  0  0
   -7.4884  -20.5128   -8.6366 C   0  0  0  0  0  0  0  0  0  0  0  0
   -6.4893  -21.6230   -8.4376 C   0  0  0  0  0  0  0  0  0  0  0  0
   -5.6877  -18.6492   -7.8689 C   0  0  0  0  0  0  0  0  0  0  0  0
   -5.1924  -19.2227   -6.6934 C   0  0  0  0  0  0  0  0  0  0  0  0
   -4.0697  -18.7113   -6.0256 C   0  0  0  0  0  0  0  0  0  0  0  0
   -3.7124  -19.3024   -4.8144 N   0  0  0  0  0  0  0  0  0  0  0  0
   -5.0804  -17.4670   -8.3220 C   0  0  0  0  0  0  0  0  0  0  0  0
   -4.0049  -16.9085   -7.6359 C   0  0  0  0  0  0  0  0  0  0  0  0
   -3.4777  -17.5168   -6.4810 C   0  0  0  0  0  0  0  0  0  0  0  0
   -2.2989  -16.8534   -5.7848 C   0  0  0  0  0  0  0  0  0  0  0  0
   -1.8689  -15.7639   -6.2880 O   0  0  0  0  0  0  0  0  0  0  0  0
   -1.8163  -17.4266   -4.7539 O   0  0  0  0  0  0  0  0  0  0  0  0
  -12.1267  -16.3624   -2.0412 H   0  0  0  0  0  0  0  0  0  0  0  0
  -13.7879  -12.4780   -1.2711 H   0  0  0  0  0  0  0  0  0  0  0  0
  -12.3154  -11.4769   -2.9698 H   0  0  0  0  0  0  0  0  0  0  0  0
   -9.6896  -11.5328   -5.6556 H   0  0  0  0  0  0  0  0  0  0  0  0
  -10.0791  -10.9787   -4.0204 H   0  0  0  0  0  0  0  0  0  0  0  0
  -11.3846  -11.2455   -5.2493 H   0  0  0  0  0  0  0  0  0  0  0  0
  -10.0575  -16.5079   -3.3259 H   0  0  0  0  0  0  0  0  0  0  0  0
   -9.2994  -15.0542   -3.9235 H   0  0  0  0  0  0  0  0  0  0  0  0
  -10.7282  -14.9474   -5.8697 H   0  0  0  0  0  0  0  0  0  0  0  0
  -12.7716  -15.9474   -4.9563 H   0  0  0  0  0  0  0  0  0  0  0  0
  -12.0237  -17.5459   -4.8810 H   0  0  0  0  0  0  0  0  0  0  0  0
  -13.4718  -17.2772   -6.7658 H   0  0  0  0  0  0  0  0  0  0  0  0
  -13.3695  -17.5757  -11.5143 H   0  0  0  0  0  0  0  0  0  0  0  0
  -14.8466  -18.5727  -13.1650 H   0  0  0  0  0  0  0  0  0  0  0  0
  -17.0289  -19.5378  -12.5002 H   0  0  0  0  0  0  0  0  0  0  0  0
  -17.7667  -19.4284  -10.1409 H   0  0  0  0  0  0  0  0  0  0  0  0
  -16.3041  -18.4228   -8.4339 H   0  0  0  0  0  0  0  0  0  0  0  0
  -10.6963  -14.9687   -7.7985 H   0  0  0  0  0  0  0  0  0  0  0  0
  -10.4915  -15.9105   -9.2346 H   0  0  0  0  0  0  0  0  0  0  0  0
   -7.8247  -18.2415   -6.7504 H   0  0  0  0  0  0  0  0  0  0  0  0
   -6.9623  -18.6772   -9.5401 H   0  0  0  0  0  0  0  0  0  0  0  0
   -7.9392  -20.6275   -9.6363 H   0  0  0  0  0  0  0  0  0  0  0  0
   -8.3284  -20.6850   -7.9480 H   0  0  0  0  0  0  0  0  0  0  0  0
   -6.9852  -22.5929   -8.5659 H   0  0  0  0  0  0  0  0  0  0  0  0
   -6.0905  -21.6264   -7.4272 H   0  0  0  0  0  0  0  0  0  0  0  0
   -5.6669  -21.5509   -9.1548 H   0  0  0  0  0  0  0  0  0  0  0  0
   -5.7058  -20.0563   -6.2289 H   0  0  0  0  0  0  0  0  0  0  0  0
   -3.9975  -20.2378   -4.5762 H   0  0  0  0  0  0  0  0  0  0  0  0
   -2.8066  -18.9534   -4.4540 H   0  0  0  0  0  0  0  0  0  0  0  0
   -5.4818  -16.9293   -9.1787 H   0  0  0  0  0  0  0  0  0  0  0  0
   -3.5758  -15.9691   -7.9847 H   0  0  0  0  0  0  0  0  0  0  0  0
  -12.3989  -16.8448   -9.9933 H   0  0  0  0  0  0  0  0  0  0  0  0
  1  2  2  0  0  0  0
  1 13  1  0  0  0  0
  1 26  1  0  0  0  0
  3  4  1  0  0  0  0
  4  5  2  0  0  0  0
  4  6  1  0  0  0  0
  5 11  1  0  0  0  0
  5 43  1  0  0  0  0
  6  7  2  0  0  0  0
  6 44  1  0  0  0  0
  7  8  1  0  0  0  0
  7 45  1  0  0  0  0
  8  9  1  0  0  0  0
  8 11  2  0  0  0  0
  9 10  1  0  0  0  0
 10 46  1  0  0  0  0
 10 47  1  0  0  0  0
 10 48  1  0  0  0  0
 11 12  1  0  0  0  0
 12 13  1  0  0  0  0
 12 49  1  0  0  0  0
 12 50  1  0  0  0  0
 13 14  1  0  0  0  0
 13 51  1  6  0  0  0
 14 15  1  0  0  0  0
 14 52  1  0  0  0  0
 14 53  1  0  0  0  0
 15 16  1  0  0  0  0
 15 54  1  0  0  0  0
 16 17  2  0  0  0  0
 16 25  1  0  0  0  0
 17 18  1  0  0  0  0
 17 74  1  0  0  0  0
 18 19  1  0  0  0  0
 19 20  2  0  0  0  0
 19 24  1  0  0  0  0
 20 21  1  0  0  0  0
 20 55  1  0  0  0  0
 21 22  2  0  0  0  0
 21 56  1  0  0  0  0
 22 23  1  0  0  0  0
 22 57  1  0  0  0  0
 23 24  2  0  0  0  0
 23 58  1  0  0  0  0
 24 59  1  0  0  0  0
 25 26  1  0  0  0  0
 25 60  1  0  0  0  0
 25 61  1  0  0  0  0
 26 27  1  0  0  0  0
 27 28  2  0  0  0  0
 27 29  1  0  0  0  0
 29 30  1  0  0  0  0
 29 62  1  0  0  0  0
 30 31  1  0  0  0  0
 30 33  1  0  0  0  0
 30 63  1  6  0  0  0
 31 32  1  0  0  0  0
 31 64  1  0  0  0  0
 31 65  1  0  0  0  0
 32 66  1  0  0  0  0
 32 67  1  0  0  0  0
 32 68  1  0  0  0  0
 33 34  2  0  0  0  0
 33 37  1  0  0  0  0
 34 35  1  0  0  0  0
 34 69  1  0  0  0  0
 35 36  1  0  0  0  0
 35 39  2  0  0  0  0
 36 70  1  0  0  0  0
 36 71  1  0  0  0  0
 37 38  2  0  0  0  0
 37 72  1  0  0  0  0
 38 39  1  0  0  0  0
 38 73  1  0  0  0  0
 39 40  1  0  0  0  0
 40 41  2  0  0  0  0
 40 42  1  0  0  0  0
M  CHG  1  17   1
M  END
$$$$
