8Y4
 OpenBabel04161912073D

 37 39  0  0  0  0  0  0  0  0999 V2000
  -24.0711    3.3428   98.2471 C   0  0  0  0  0  0  0  0  0  0  0  0
  -23.1775    2.9619   99.2458 C   0  0  0  0  0  0  0  0  0  0  0  0
  -24.6017    4.6308   98.2454 C   0  0  0  0  0  0  0  0  0  0  0  0
  -22.8002    3.8733  100.2350 C   0  0  0  0  0  0  0  0  0  0  0  0
  -24.2403    5.5358   99.2453 C   0  0  0  0  0  0  0  0  0  0  0  0
  -23.3249    5.1668  100.2372 C   0  0  0  0  0  0  0  0  0  0  0  0
  -18.3097    9.1927  103.7624 C   0  0  0  0  0  0  0  0  0  0  0  0
  -17.9024    8.8204  105.0190 C   0  0  0  0  0  0  0  0  0  0  0  0
  -19.7388    7.7742  104.4711 C   0  0  0  0  0  0  0  0  0  0  0  0
  -17.5127   10.1704  103.0278 C   0  0  0  0  0  0  0  0  0  0  0  0
  -16.0270   10.2198  104.9986 C   0  0  0  0  0  0  0  0  0  0  0  0
  -21.9287    6.0892  102.0924 C   0  0  0  0  0  0  0  0  0  0  0  0
  -18.7822    7.2686  106.7598 C   0  0  0  0  0  0  0  0  0  0  0  0
  -22.0952    7.1128  103.2064 C   0  0  0  0  0  0  0  0  0  0  0  0
  -19.4793    8.5455  103.4316 N   0  0  0  0  0  0  0  0  0  0  0  0
  -16.8068    9.3035  105.6355 N   0  3  0  0  0  0  0  0  0  0  0  0
  -18.8025    7.9148  105.4718 N   0  3  0  0  0  0  0  0  0  0  0  0
  -16.3851   10.6206  103.7259 N   0  3  0  0  0  0  0  0  0  0  0  0
  -14.9772   10.7147  105.5504 N   0  0  0  0  0  0  0  0  0  0  0  0
  -23.0205    6.1175  101.2284 N   0  0  0  0  0  0  0  0  0  0  0  0
  -17.7748   10.5958  101.9052 O   0  0  0  0  0  0  0  0  0  0  0  0
  -20.9585    5.3475  101.9777 O   0  0  0  0  0  0  0  0  0  0  0  0
  -21.1019    6.7221  104.6630 S   0  0  0  0  0  0  0  0  0  0  0  0
  -24.3515    2.6362   97.4707 H   0  0  0  0  0  0  0  0  0  0  0  0
  -22.7709    1.9540   99.2595 H   0  0  0  0  0  0  0  0  0  0  0  0
  -25.2930    4.9328   97.4633 H   0  0  0  0  0  0  0  0  0  0  0  0
  -22.1159    3.5400  101.0103 H   0  0  0  0  0  0  0  0  0  0  0  0
  -24.6602    6.5375   99.2199 H   0  0  0  0  0  0  0  0  0  0  0  0
  -17.9124    7.6058  107.3277 H   0  0  0  0  0  0  0  0  0  0  0  0
  -18.7126    6.1896  106.6096 H   0  0  0  0  0  0  0  0  0  0  0  0
  -19.6877    7.5461  107.3042 H   0  0  0  0  0  0  0  0  0  0  0  0
  -23.1398    7.0747  103.5375 H   0  0  0  0  0  0  0  0  0  0  0  0
  -21.9086    8.1175  102.8187 H   0  0  0  0  0  0  0  0  0  0  0  0
  -16.5030    9.0467  106.5680 H   0  0  0  0  0  0  0  0  0  0  0  0
  -15.8285   11.2935  103.2301 H   0  0  0  0  0  0  0  0  0  0  0  0
  -14.5216   11.3822  104.9276 H   0  0  0  0  0  0  0  0  0  0  0  0
  -23.6045    6.9439  101.2489 H   0  0  0  0  0  0  0  0  0  0  0  0
  1  2  2  0  0  0  0
  1  3  1  0  0  0  0
  1 24  1  0  0  0  0
  2  4  1  0  0  0  0
  2 25  1  0  0  0  0
  3  5  2  0  0  0  0
  3 26  1  0  0  0  0
  4  6  2  0  0  0  0
  4 27  1  0  0  0  0
  5  6  1  0  0  0  0
  5 28  1  0  0  0  0
  6 20  1  0  0  0  0
  7  8  1  0  0  0  0
  7 10  1  0  0  0  0
  7 15  2  0  0  0  0
  8 16  2  0  0  0  0
  8 17  1  0  0  0  0
  9 15  1  0  0  0  0
  9 17  2  0  0  0  0
  9 23  1  0  0  0  0
 10 18  1  0  0  0  0
 10 21  2  0  0  0  0
 11 16  1  0  0  0  0
 11 18  1  0  0  0  0
 11 19  2  0  0  0  0
 12 14  1  0  0  0  0
 12 20  1  0  0  0  0
 12 22  2  0  0  0  0
 13 17  1  0  0  0  0
 13 29  1  0  0  0  0
 13 30  1  0  0  0  0
 13 31  1  0  0  0  0
 14 23  1  0  0  0  0
 14 32  1  0  0  0  0
 14 33  1  0  0  0  0
 16 34  1  0  0  0  0
 18 35  1  0  0  0  0
 19 36  1  0  0  0  0
 20 37  1  0  0  0  0
M  CHG  3  16   1  17   1  18   1
M  END
$$$$
