8Y7
 OpenBabel04161912073D

 25 26  0  0  0  0  0  0  0  0999 V2000
  -17.5120    8.7188  103.5838 C   0  0  0  0  0  0  0  0  0  0  0  0
  -17.1554    8.4222  104.8777 C   0  0  0  0  0  0  0  0  0  0  0  0
  -18.9655    7.3276  104.3003 C   0  0  0  0  0  0  0  0  0  0  0  0
  -16.6930    9.6549  102.8296 C   0  0  0  0  0  0  0  0  0  0  0  0
  -15.2868    9.8212  104.8669 C   0  0  0  0  0  0  0  0  0  0  0  0
  -20.7786    5.4518  101.9119 C   0  0  0  0  0  0  0  0  0  0  0  0
  -18.1067    6.9637  106.6506 C   0  0  0  0  0  0  0  0  0  0  0  0
  -21.2555    6.4402  102.9874 C   0  0  0  0  0  0  0  0  0  0  0  0
  -18.6611    8.0516  103.2384 N   0  0  0  0  0  0  0  0  0  0  0  0
  -16.0936    8.9383  105.5268 N   0  3  0  0  0  0  0  0  0  0  0  0
  -18.0766    7.5397  105.3336 N   0  3  0  0  0  0  0  0  0  0  0  0
  -15.5996   10.1343  103.5661 N   0  3  0  0  0  0  0  0  0  0  0  0
  -14.2563   10.3719  105.4035 N   0  0  0  0  0  0  0  0  0  0  0  0
  -19.8660    4.6235  102.1860 O   0  0  0  0  0  0  0  0  0  0  0  0
  -16.8920   10.0408  101.6799 O   0  0  0  0  0  0  0  0  0  0  0  0
  -21.4373    5.5521  100.8272 O   0  0  0  0  0  0  0  0  0  0  0  0
  -20.3198    6.2692  104.5211 S   0  0  0  0  0  0  0  0  0  0  0  0
  -17.2665    7.3453  107.2357 H   0  0  0  0  0  0  0  0  0  0  0  0
  -18.0131    5.8813  106.5591 H   0  0  0  0  0  0  0  0  0  0  0  0
  -19.0367    7.2564  107.1416 H   0  0  0  0  0  0  0  0  0  0  0  0
  -22.3059    6.2146  103.2136 H   0  0  0  0  0  0  0  0  0  0  0  0
  -21.2084    7.4628  102.6063 H   0  0  0  0  0  0  0  0  0  0  0  0
  -15.8343    8.7107  106.4801 H   0  0  0  0  0  0  0  0  0  0  0  0
  -15.0276   10.7819  103.0438 H   0  0  0  0  0  0  0  0  0  0  0  0
  -13.8142   10.9917  104.7227 H   0  0  0  0  0  0  0  0  0  0  0  0
  1  2  1  0  0  0  0
  1  4  1  0  0  0  0
  1  9  2  0  0  0  0
  2 10  2  0  0  0  0
  2 11  1  0  0  0  0
  3  9  1  0  0  0  0
  3 11  2  0  0  0  0
  3 17  1  0  0  0  0
  4 12  1  0  0  0  0
  4 15  2  0  0  0  0
  5 10  1  0  0  0  0
  5 12  1  0  0  0  0
  5 13  2  0  0  0  0
  6  8  1  0  0  0  0
  6 14  2  0  0  0  0
  6 16  1  0  0  0  0
  7 11  1  0  0  0  0
  7 18  1  0  0  0  0
  7 19  1  0  0  0  0
  7 20  1  0  0  0  0
  8 17  1  0  0  0  0
  8 21  1  0  0  0  0
  8 22  1  0  0  0  0
 10 23  1  0  0  0  0
 12 24  1  0  0  0  0
 13 25  1  0  0  0  0
M  CHG  3  10   1  11   1  12   1
M  END
$$$$
