8ZQ
 OpenBabel04161911363D

 69 73  0  0  0  0  0  0  0  0999 V2000
  116.9327   13.7521   42.1638 C   0  0  0  0  0  0  0  0  0  0  0  0
  115.8277   12.9525   41.5291 C   0  0  0  0  0  0  0  0  0  0  0  0
  115.6745   11.6737   42.2877 N   0  3  0  0  0  0  0  0  0  0  0  0
  116.8857   10.8156   42.1427 C   0  0  0  0  0  0  0  0  0  0  0  0
  117.9555   11.5109   42.9275 C   0  0  0  0  0  0  0  0  0  0  0  0
  118.2069   12.9130   42.3766 C   0  0  0  0  0  0  0  0  0  0  0  0
  119.0139   13.5080   43.3658 N   0  0  0  0  0  0  0  0  0  0  0  0
  119.5333   14.7680   43.2237 C   0  0  0  0  0  0  0  0  0  0  0  0
  119.4187   15.4779   42.2597 O   0  0  0  0  0  0  0  0  0  0  0  0
  120.3755   15.0687   44.3404 C   0  0  0  0  0  0  0  0  0  0  0  0
  121.7153   14.7097   44.2205 C   0  0  0  0  0  0  0  0  0  0  0  0
  119.7961   15.4585   45.5482 C   0  0  0  0  0  0  0  0  0  0  0  0
  120.6052   15.5728   46.6582 C   0  0  0  0  0  0  0  0  0  0  0  0
  120.1103   16.0576   47.9585 C   0  0  0  0  0  0  0  0  0  0  0  0
  120.8562   17.0571   48.6283 C   0  0  0  0  0  0  0  0  0  0  0  0
  120.4498   17.5665   49.8653 C   0  0  0  0  0  0  0  0  0  0  0  0
  119.2863   17.0869   50.4472 C   0  0  0  0  0  0  0  0  0  0  0  0
  118.5346   16.1033   49.8022 C   0  0  0  0  0  0  0  0  0  0  0  0
  118.9428   15.5617   48.5756 C   0  0  0  0  0  0  0  0  0  0  0  0
  118.0568   14.6894   47.9117 N   0  0  0  0  0  0  0  0  0  0  0  0
  121.9560   15.2152   46.5235 C   0  0  0  0  0  0  0  0  0  0  0  0
  122.5424   14.8011   45.3188 C   0  0  0  0  0  0  0  0  0  0  0  0
  123.9050   14.5383   45.1360 N   0  0  0  0  0  0  0  0  0  0  0  0
  124.9688   15.0904   45.7647 C   0  0  0  0  0  0  0  0  0  0  0  0
  124.9090   15.9311   47.2517 S   0  0  0  0  0  0  0  0  0  0  0  0
  126.1692   15.0267   45.2368 N   0  0  0  0  0  0  0  0  0  0  0  0
  127.0929   15.6236   46.0776 C   0  0  0  0  0  0  0  0  0  0  0  0
  126.5845   16.1287   47.2498 C   0  0  0  0  0  0  0  0  0  0  0  0
  127.1759   16.7536   48.4014 C   0  0  0  0  0  0  0  0  0  0  0  0
  126.5387   17.0391   49.4149 O   0  0  0  0  0  0  0  0  0  0  0  0
  128.5181   17.0366   48.2743 N   0  0  0  0  0  0  0  0  0  0  0  0
  129.1899   17.6173   49.3559 C   0  0  0  0  0  0  0  0  0  0  0  0
  129.5455   16.8134   50.4519 C   0  0  0  0  0  0  0  0  0  0  0  0
  129.2849   15.1006   50.4463 Cl  0  0  0  0  0  0  0  0  0  0  0  0
  130.1707   17.3846   51.5537 C   0  0  0  0  0  0  0  0  0  0  0  0
  130.4340   18.7526   51.5625 C   0  0  0  0  0  0  0  0  0  0  0  0
  130.0555   19.5559   50.4832 C   0  0  0  0  0  0  0  0  0  0  0  0
  129.4338   18.9990   49.3579 C   0  0  0  0  0  0  0  0  0  0  0  0
  129.0196   19.9118   48.2373 C   0  0  0  0  0  0  0  0  0  0  0  0
  116.6008   14.1457   43.1365 H   0  0  0  0  0  0  0  0  0  0  0  0
  117.1558   14.6284   41.5453 H   0  0  0  0  0  0  0  0  0  0  0  0
  116.0700   12.6922   40.4953 H   0  0  0  0  0  0  0  0  0  0  0  0
  114.8762   13.4812   41.5706 H   0  0  0  0  0  0  0  0  0  0  0  0
  115.5037   11.8829   43.2814 H   0  0  0  0  0  0  0  0  0  0  0  0
  117.1335   10.7371   41.0799 H   0  0  0  0  0  0  0  0  0  0  0  0
  116.6654    9.8309   42.5603 H   0  0  0  0  0  0  0  0  0  0  0  0
  118.8903   10.9384   42.9447 H   0  0  0  0  0  0  0  0  0  0  0  0
  117.6281   11.6011   43.9720 H   0  0  0  0  0  0  0  0  0  0  0  0
  118.7557   12.8454   41.4230 H   0  0  0  0  0  0  0  0  0  0  0  0
  119.2510   13.0141   44.2206 H   0  0  0  0  0  0  0  0  0  0  0  0
  122.0774   14.3627   43.2582 H   0  0  0  0  0  0  0  0  0  0  0  0
  118.7289   15.6574   45.6059 H   0  0  0  0  0  0  0  0  0  0  0  0
  121.7600   17.4647   48.1862 H   0  0  0  0  0  0  0  0  0  0  0  0
  121.0384   18.3358   50.3516 H   0  0  0  0  0  0  0  0  0  0  0  0
  118.9572   17.4869   51.4031 H   0  0  0  0  0  0  0  0  0  0  0  0
  117.6198   15.7523   50.2777 H   0  0  0  0  0  0  0  0  0  0  0  0
  118.4804   14.0905   47.2118 H   0  0  0  0  0  0  0  0  0  0  0  0
  117.3369   14.2570   48.4797 H   0  0  0  0  0  0  0  0  0  0  0  0
  122.5423   15.2593   47.4323 H   0  0  0  0  0  0  0  0  0  0  0  0
  124.1427   14.1098   44.2477 H   0  0  0  0  0  0  0  0  0  0  0  0
  128.1311   15.6312   45.7774 H   0  0  0  0  0  0  0  0  0  0  0  0
  129.0225   16.9113   47.4108 H   0  0  0  0  0  0  0  0  0  0  0  0
  130.4516   16.7678   52.4015 H   0  0  0  0  0  0  0  0  0  0  0  0
  130.9373   19.1977   52.4175 H   0  0  0  0  0  0  0  0  0  0  0  0
  130.2393   20.6276   50.5291 H   0  0  0  0  0  0  0  0  0  0  0  0
  128.5196   19.3836   47.4200 H   0  0  0  0  0  0  0  0  0  0  0  0
  129.9039   20.4013   47.8180 H   0  0  0  0  0  0  0  0  0  0  0  0
  128.3242   20.6759   48.6026 H   0  0  0  0  0  0  0  0  0  0  0  0
  114.8355   11.1654   41.9654 H   0  0  0  0  0  0  0  0  0  0  0  0
  1  2  1  0  0  0  0
  1  6  1  0  0  0  0
  1 40  1  0  0  0  0
  1 41  1  0  0  0  0
  2  3  1  0  0  0  0
  2 42  1  0  0  0  0
  2 43  1  0  0  0  0
  3  4  1  0  0  0  0
  3 44  1  0  0  0  0
  3 69  1  0  0  0  0
  4  5  1  0  0  0  0
  4 45  1  0  0  0  0
  4 46  1  0  0  0  0
  5  6  1  0  0  0  0
  5 47  1  0  0  0  0
  5 48  1  0  0  0  0
  6  7  1  0  0  0  0
  6 49  1  0  0  0  0
  7  8  1  0  0  0  0
  7 50  1  0  0  0  0
  8  9  2  0  0  0  0
  8 10  1  0  0  0  0
 10 11  2  0  0  0  0
 10 12  1  0  0  0  0
 11 22  1  0  0  0  0
 11 51  1  0  0  0  0
 12 13  2  0  0  0  0
 12 52  1  0  0  0  0
 13 14  1  0  0  0  0
 13 21  1  0  0  0  0
 14 15  2  0  0  0  0
 14 19  1  0  0  0  0
 15 16  1  0  0  0  0
 15 53  1  0  0  0  0
 16 17  2  0  0  0  0
 16 54  1  0  0  0  0
 17 18  1  0  0  0  0
 17 55  1  0  0  0  0
 18 19  2  0  0  0  0
 18 56  1  0  0  0  0
 19 20  1  0  0  0  0
 20 57  1  0  0  0  0
 20 58  1  0  0  0  0
 21 22  2  0  0  0  0
 21 59  1  0  0  0  0
 22 23  1  0  0  0  0
 23 24  1  0  0  0  0
 23 60  1  0  0  0  0
 24 25  1  0  0  0  0
 24 26  2  0  0  0  0
 25 28  1  0  0  0  0
 26 27  1  0  0  0  0
 27 28  2  0  0  0  0
 27 61  1  0  0  0  0
 28 29  1  0  0  0  0
 29 30  2  0  0  0  0
 29 31  1  0  0  0  0
 31 32  1  0  0  0  0
 31 62  1  0  0  0  0
 32 33  2  0  0  0  0
 32 38  1  0  0  0  0
 33 34  1  0  0  0  0
 33 35  1  0  0  0  0
 35 36  2  0  0  0  0
 35 63  1  0  0  0  0
 36 37  1  0  0  0  0
 36 64  1  0  0  0  0
 37 38  2  0  0  0  0
 37 65  1  0  0  0  0
 38 39  1  0  0  0  0
 39 66  1  0  0  0  0
 39 67  1  0  0  0  0
 39 68  1  0  0  0  0
M  CHG  1   3   1
M  END
$$$$
