8ZT
 OpenBabel04161911353D

 63 67  0  0  0  0  0  0  0  0999 V2000
  -82.4049  -14.9257    3.1054 C   0  0  0  0  0  0  0  0  0  0  0  0
  -81.3551  -15.2292    2.0377 C   0  0  0  0  0  0  0  0  0  0  0  0
  -80.0349  -15.1631    2.5938 O   0  0  0  0  0  0  0  0  0  0  0  0
  -79.9048  -16.2490    3.5191 C   0  0  0  0  0  0  0  0  0  0  0  0
  -80.8413  -16.0704    4.7155 C   0  0  0  0  0  0  0  0  0  0  0  0
  -82.2194  -15.8013    4.2704 N   0  0  0  0  0  0  0  0  0  0  0  0
  -83.2371  -15.8392    5.2055 C   0  0  0  0  0  0  0  0  0  0  0  0
  -84.5831  -15.8212    4.8231 C   0  0  0  0  0  0  0  0  0  0  0  0
  -82.9699  -15.9604    6.5735 C   0  0  0  0  0  0  0  0  0  0  0  0
  -83.9638  -16.0279    7.5337 C   0  0  0  0  0  0  0  0  0  0  0  0
  -83.6432  -16.0385    8.8819 N   0  0  0  0  0  0  0  0  0  0  0  0
  -82.5978  -16.9741    9.3049 C   0  0  0  0  0  0  0  0  0  0  0  0
  -82.2063  -16.7240   10.7544 C   0  0  0  0  0  0  0  0  0  0  0  0
  -83.3501  -16.6721   11.6149 O   0  0  0  0  0  0  0  0  0  0  0  0
  -84.1727  -15.5564   11.2521 C   0  0  0  0  0  0  0  0  0  0  0  0
  -84.6996  -15.6694    9.8301 C   0  0  0  0  0  0  0  0  0  0  0  0
  -85.2729  -16.0016    7.0822 C   0  0  0  0  0  0  0  0  0  0  0  0
  -85.6259  -15.9025    5.7452 C   0  0  0  0  0  0  0  0  0  0  0  0
  -86.9348  -15.9663    5.2649 N   0  0  0  0  0  0  0  0  0  0  0  0
  -88.0341  -16.4537    5.8737 C   0  0  0  0  0  0  0  0  0  0  0  0
  -88.0824  -17.3636    7.3149 S   0  0  0  0  0  0  0  0  0  0  0  0
  -89.2364  -16.3244    5.3132 N   0  0  0  0  0  0  0  0  0  0  0  0
  -90.1992  -16.8839    6.1407 C   0  0  0  0  0  0  0  0  0  0  0  0
  -89.7476  -17.4450    7.2965 C   0  0  0  0  0  0  0  0  0  0  0  0
  -90.4335  -18.0445    8.4198 C   0  0  0  0  0  0  0  0  0  0  0  0
  -89.8814  -18.2727    9.4928 O   0  0  0  0  0  0  0  0  0  0  0  0
  -91.7626  -18.4091    8.2121 N   0  0  0  0  0  0  0  0  0  0  0  0
  -92.4651  -19.0771    9.2511 C   0  0  0  0  0  0  0  0  0  0  0  0
  -92.9560  -18.3522   10.3379 C   0  0  0  0  0  0  0  0  0  0  0  0
  -92.7756  -16.6371   10.4342 Cl  0  0  0  0  0  0  0  0  0  0  0  0
  -93.6674  -19.0168   11.3372 C   0  0  0  0  0  0  0  0  0  0  0  0
  -93.8536  -20.3996   11.2904 C   0  0  0  0  0  0  0  0  0  0  0  0
  -93.3562  -21.1239   10.2166 C   0  0  0  0  0  0  0  0  0  0  0  0
  -92.6590  -20.4642    9.1867 C   0  0  0  0  0  0  0  0  0  0  0  0
  -92.1082  -21.2795    8.0654 C   0  0  0  0  0  0  0  0  0  0  0  0
  -83.3755  -15.1010    2.6368 H   0  0  0  0  0  0  0  0  0  0  0  0
  -82.3527  -13.8708    3.4004 H   0  0  0  0  0  0  0  0  0  0  0  0
  -81.4387  -14.5216    1.2131 H   0  0  0  0  0  0  0  0  0  0  0  0
  -81.5141  -16.2360    1.6295 H   0  0  0  0  0  0  0  0  0  0  0  0
  -78.8694  -16.3111    3.8566 H   0  0  0  0  0  0  0  0  0  0  0  0
  -80.1429  -17.1837    2.9989 H   0  0  0  0  0  0  0  0  0  0  0  0
  -80.4627  -15.2668    5.3602 H   0  0  0  0  0  0  0  0  0  0  0  0
  -80.8278  -17.0102    5.2849 H   0  0  0  0  0  0  0  0  0  0  0  0
  -84.8490  -15.7819    3.7798 H   0  0  0  0  0  0  0  0  0  0  0  0
  -81.9454  -15.9195    6.9159 H   0  0  0  0  0  0  0  0  0  0  0  0
  -81.6898  -16.8269    8.7104 H   0  0  0  0  0  0  0  0  0  0  0  0
  -82.9138  -18.0153    9.1686 H   0  0  0  0  0  0  0  0  0  0  0  0
  -81.6465  -15.7835   10.8350 H   0  0  0  0  0  0  0  0  0  0  0  0
  -81.5511  -17.5325   11.0902 H   0  0  0  0  0  0  0  0  0  0  0  0
  -83.6003  -14.6294   11.3682 H   0  0  0  0  0  0  0  0  0  0  0  0
  -85.0218  -15.5131   11.9410 H   0  0  0  0  0  0  0  0  0  0  0  0
  -85.5351  -16.3812    9.8197 H   0  0  0  0  0  0  0  0  0  0  0  0
  -85.0910  -14.6834    9.5363 H   0  0  0  0  0  0  0  0  0  0  0  0
  -86.0465  -16.0314    7.8290 H   0  0  0  0  0  0  0  0  0  0  0  0
  -87.0632  -15.5577    4.3580 H   0  0  0  0  0  0  0  0  0  0  0  0
  -91.2499  -16.8224    5.8112 H   0  0  0  0  0  0  0  0  0  0  0  0
  -92.1653  -18.4160    7.2917 H   0  0  0  0  0  0  0  0  0  0  0  0
  -94.0839  -18.4478   12.1698 H   0  0  0  0  0  0  0  0  0  0  0  0
  -94.3835  -20.9034   12.0938 H   0  0  0  0  0  0  0  0  0  0  0  0
  -93.5041  -22.2057   10.1794 H   0  0  0  0  0  0  0  0  0  0  0  0
  -91.5644  -20.6538    7.3548 H   0  0  0  0  0  0  0  0  0  0  0  0
  -92.9358  -21.7522    7.5347 H   0  0  0  0  0  0  0  0  0  0  0  0
  -91.4086  -22.0242    8.4530 H   0  0  0  0  0  0  0  0  0  0  0  0
  1  2  1  0  0  0  0
  1  6  1  0  0  0  0
  1 36  1  0  0  0  0
  1 37  1  0  0  0  0
  2  3  1  0  0  0  0
  2 38  1  0  0  0  0
  2 39  1  0  0  0  0
  3  4  1  0  0  0  0
  4  5  1  0  0  0  0
  4 40  1  0  0  0  0
  4 41  1  0  0  0  0
  5  6  1  0  0  0  0
  5 42  1  0  0  0  0
  5 43  1  0  0  0  0
  6  7  1  0  0  0  0
  7  8  2  0  0  0  0
  7  9  1  0  0  0  0
  8 18  1  0  0  0  0
  8 44  1  0  0  0  0
  9 10  2  0  0  0  0
  9 45  1  0  0  0  0
 10 11  1  0  0  0  0
 10 17  1  0  0  0  0
 11 12  1  0  0  0  0
 11 16  1  0  0  0  0
 12 13  1  0  0  0  0
 12 46  1  0  0  0  0
 12 47  1  0  0  0  0
 13 14  1  0  0  0  0
 13 48  1  0  0  0  0
 13 49  1  0  0  0  0
 14 15  1  0  0  0  0
 15 16  1  0  0  0  0
 15 50  1  0  0  0  0
 15 51  1  0  0  0  0
 16 52  1  0  0  0  0
 16 53  1  0  0  0  0
 17 18  2  0  0  0  0
 17 54  1  0  0  0  0
 18 19  1  0  0  0  0
 19 20  1  0  0  0  0
 19 55  1  0  0  0  0
 20 21  1  0  0  0  0
 20 22  2  0  0  0  0
 21 24  1  0  0  0  0
 22 23  1  0  0  0  0
 23 24  2  0  0  0  0
 23 56  1  0  0  0  0
 24 25  1  0  0  0  0
 25 26  2  0  0  0  0
 25 27  1  0  0  0  0
 27 28  1  0  0  0  0
 27 57  1  0  0  0  0
 28 29  2  0  0  0  0
 28 34  1  0  0  0  0
 29 30  1  0  0  0  0
 29 31  1  0  0  0  0
 31 32  2  0  0  0  0
 31 58  1  0  0  0  0
 32 33  1  0  0  0  0
 32 59  1  0  0  0  0
 33 34  2  0  0  0  0
 33 60  1  0  0  0  0
 34 35  1  0  0  0  0
 35 61  1  0  0  0  0
 35 62  1  0  0  0  0
 35 63  1  0  0  0  0
M  END
$$$$
