8ZZ
 OpenBabel04161911343D

 57 60  0  0  1  0  0  0  0  0999 V2000
  -81.1239  -12.4951    2.4026 F   0  0  0  0  0  0  0  0  0  0  0  0
  -80.0431  -12.8632    3.1306 C   0  0  2  0  0  0  0  0  0  0  0  0
  -78.7908  -12.6481    2.3023 C   0  0  0  0  0  0  0  0  0  0  0  0
  -77.5867  -13.1105    3.0728 N   0  3  0  0  0  0  0  0  0  0  0  0
  -77.6578  -14.5614    3.4352 C   0  0  0  0  0  0  0  0  0  0  0  0
  -78.8875  -14.7844    4.2854 C   0  0  0  0  0  0  0  0  0  0  0  0
  -80.1411  -14.3390    3.5338 C   0  0  1  0  0  0  0  0  0  0  0  0
  -81.2606  -14.5387    4.4088 N   0  0  0  0  0  0  0  0  0  0  0  0
  -82.3884  -15.2196    4.0194 C   0  0  0  0  0  0  0  0  0  0  0  0
  -82.5368  -15.7397    2.9398 O   0  0  0  0  0  0  0  0  0  0  0  0
  -83.4281  -15.2187    5.0693 C   0  0  0  0  0  0  0  0  0  0  0  0
  -84.7662  -15.2197    4.6890 C   0  0  0  0  0  0  0  0  0  0  0  0
  -83.0551  -15.1690    6.4255 C   0  0  0  0  0  0  0  0  0  0  0  0
  -84.0238  -15.0947    7.4014 C   0  0  0  0  0  0  0  0  0  0  0  0
  -85.3547  -15.0703    7.0149 C   0  0  0  0  0  0  0  0  0  0  0  0
  -85.7521  -15.1360    5.6672 C   0  0  0  0  0  0  0  0  0  0  0  0
  -87.0902  -15.2080    5.2669 N   0  0  0  0  0  0  0  0  0  0  0  0
  -88.1390  -15.7441    5.9163 C   0  0  0  0  0  0  0  0  0  0  0  0
  -88.0300  -16.6545    7.3742 S   0  0  0  0  0  0  0  0  0  0  0  0
  -89.3507  -15.6516    5.4237 N   0  0  0  0  0  0  0  0  0  0  0  0
  -90.2425  -16.2794    6.2591 C   0  0  0  0  0  0  0  0  0  0  0  0
  -89.7020  -16.8478    7.3900 C   0  0  0  0  0  0  0  0  0  0  0  0
  -90.3220  -17.5437    8.4826 C   0  0  0  0  0  0  0  0  0  0  0  0
  -89.7295  -17.8864    9.4990 O   0  0  0  0  0  0  0  0  0  0  0  0
  -91.6627  -17.7621    8.2732 N   0  0  0  0  0  0  0  0  0  0  0  0
  -92.4217  -18.3504    9.2746 C   0  0  0  0  0  0  0  0  0  0  0  0
  -92.5810  -19.7392    9.2845 C   0  0  0  0  0  0  0  0  0  0  0  0
  -91.8968  -20.7359    8.0493 Cl  0  0  0  0  0  0  0  0  0  0  0  0
  -93.2924  -20.3247   10.3188 C   0  0  0  0  0  0  0  0  0  0  0  0
  -93.8374  -19.5278   11.3286 C   0  0  0  0  0  0  0  0  0  0  0  0
  -93.6713  -18.1409   11.3098 C   0  0  0  0  0  0  0  0  0  0  0  0
  -92.9586  -17.5328   10.2775 C   0  0  0  0  0  0  0  0  0  0  0  0
  -92.7710  -16.0437   10.2933 C   0  0  0  0  0  0  0  0  0  0  0  0
  -80.0189  -12.2305    4.0270 H   0  0  0  0  0  0  0  0  0  0  0  0
  -78.6456  -11.5925    2.0615 H   0  0  0  0  0  0  0  0  0  0  0  0
  -78.8226  -13.2208    1.3680 H   0  0  0  0  0  0  0  0  0  0  0  0
  -76.7428  -12.9440    2.5049 H   0  0  0  0  0  0  0  0  0  0  0  0
  -76.7423  -14.8089    3.9786 H   0  0  0  0  0  0  0  0  0  0  0  0
  -77.7043  -15.1300    2.5009 H   0  0  0  0  0  0  0  0  0  0  0  0
  -78.8037  -14.2235    5.2277 H   0  0  0  0  0  0  0  0  0  0  0  0
  -78.9690  -15.8418    4.5636 H   0  0  0  0  0  0  0  0  0  0  0  0
  -80.2751  -14.9542    2.6358 H   0  0  0  0  0  0  0  0  0  0  0  0
  -81.3033  -13.9949    5.2625 H   0  0  0  0  0  0  0  0  0  0  0  0
  -85.0310  -15.2882    3.6350 H   0  0  0  0  0  0  0  0  0  0  0  0
  -82.0185  -15.1922    6.7381 H   0  0  0  0  0  0  0  0  0  0  0  0
  -83.7577  -15.0576    8.4520 H   0  0  0  0  0  0  0  0  0  0  0  0
  -86.0829  -14.9818    7.8144 H   0  0  0  0  0  0  0  0  0  0  0  0
  -87.2991  -14.8524    4.3421 H   0  0  0  0  0  0  0  0  0  0  0  0
  -91.2871  -16.2757    5.9870 H   0  0  0  0  0  0  0  0  0  0  0  0
  -92.1490  -17.4663    7.4437 H   0  0  0  0  0  0  0  0  0  0  0  0
  -93.4166  -21.4037   10.3494 H   0  0  0  0  0  0  0  0  0  0  0  0
  -94.3891  -19.9895   12.1423 H   0  0  0  0  0  0  0  0  0  0  0  0
  -94.0874  -17.5332   12.1104 H   0  0  0  0  0  0  0  0  0  0  0  0
  -92.1878  -15.6738    9.4441 H   0  0  0  0  0  0  0  0  0  0  0  0
  -92.2415  -15.7438   11.2034 H   0  0  0  0  0  0  0  0  0  0  0  0
  -93.7470  -15.5548   10.2487 H   0  0  0  0  0  0  0  0  0  0  0  0
  -77.4602  -12.5351    3.9195 H   0  0  0  0  0  0  0  0  0  0  0  0
  1  2  1  0  0  0  0
  2  3  1  0  0  0  0
  2  7  1  0  0  0  0
  2 34  1  1  0  0  0
  3  4  1  0  0  0  0
  3 35  1  0  0  0  0
  3 36  1  0  0  0  0
  4  5  1  0  0  0  0
  4 37  1  0  0  0  0
  4 57  1  0  0  0  0
  5  6  1  0  0  0  0
  5 38  1  0  0  0  0
  5 39  1  0  0  0  0
  6  7  1  0  0  0  0
  6 40  1  0  0  0  0
  6 41  1  0  0  0  0
  7  8  1  0  0  0  0
  7 42  1  6  0  0  0
  8  9  1  0  0  0  0
  8 43  1  0  0  0  0
  9 10  2  0  0  0  0
  9 11  1  0  0  0  0
 11 12  2  0  0  0  0
 11 13  1  0  0  0  0
 12 16  1  0  0  0  0
 12 44  1  0  0  0  0
 13 14  2  0  0  0  0
 13 45  1  0  0  0  0
 14 15  1  0  0  0  0
 14 46  1  0  0  0  0
 15 16  2  0  0  0  0
 15 47  1  0  0  0  0
 16 17  1  0  0  0  0
 17 18  1  0  0  0  0
 17 48  1  0  0  0  0
 18 19  1  0  0  0  0
 18 20  2  0  0  0  0
 19 22  1  0  0  0  0
 20 21  1  0  0  0  0
 21 22  2  0  0  0  0
 21 49  1  0  0  0  0
 22 23  1  0  0  0  0
 23 24  2  0  0  0  0
 23 25  1  0  0  0  0
 25 26  1  0  0  0  0
 25 50  1  0  0  0  0
 26 27  2  0  0  0  0
 26 32  1  0  0  0  0
 27 28  1  0  0  0  0
 27 29  1  0  0  0  0
 29 30  2  0  0  0  0
 29 51  1  0  0  0  0
 30 31  1  0  0  0  0
 30 52  1  0  0  0  0
 31 32  2  0  0  0  0
 31 53  1  0  0  0  0
 32 33  1  0  0  0  0
 33 54  1  0  0  0  0
 33 55  1  0  0  0  0
 33 56  1  0  0  0  0
M  CHG  1   4   1
M  END
$$$$
