90E
 OpenBabel04161911333D

 56 59  0  0  1  0  0  0  0  0999 V2000
  -81.1486   -7.7495    3.9222 F   0  0  0  0  0  0  0  0  0  0  0  0
  -80.3525   -8.7989    3.5893 C   0  0  0  0  0  0  0  0  0  0  0  0
  -79.9554   -9.3602    4.7597 F   0  0  0  0  0  0  0  0  0  0  0  0
  -79.1449   -8.3478    2.7822 C   0  0  0  0  0  0  0  0  0  0  0  0
  -78.2377   -9.4494    2.3994 N   0  0  0  0  0  0  0  0  0  0  0  0
  -78.8561  -10.7794    2.5274 C   0  0  0  0  0  0  0  0  0  0  0  0
  -80.2879  -10.8110    2.0095 C   0  0  0  0  0  0  0  0  0  0  0  0
  -81.1602   -9.7777    2.7298 C   0  0  1  0  0  0  0  0  0  0  0  0
  -82.2636  -10.3169    3.5009 N   0  0  0  0  0  0  0  0  0  0  0  0
  -82.2011  -11.4713    4.2313 C   0  0  0  0  0  0  0  0  0  0  0  0
  -81.4007  -12.3879    4.1558 O   0  0  0  0  0  0  0  0  0  0  0  0
  -83.2612  -11.5235    5.2179 C   0  0  0  0  0  0  0  0  0  0  0  0
  -84.5853  -11.4214    4.7960 C   0  0  0  0  0  0  0  0  0  0  0  0
  -82.8847  -11.5663    6.5539 C   0  0  0  0  0  0  0  0  0  0  0  0
  -83.8745  -11.5456    7.5094 C   0  0  0  0  0  0  0  0  0  0  0  0
  -85.2011  -11.4593    7.0995 C   0  0  0  0  0  0  0  0  0  0  0  0
  -85.5874  -11.3828    5.7499 C   0  0  0  0  0  0  0  0  0  0  0  0
  -86.9156  -11.3412    5.3103 N   0  0  0  0  0  0  0  0  0  0  0  0
  -88.0103  -11.8492    5.9066 C   0  0  0  0  0  0  0  0  0  0  0  0
  -87.9584  -12.7704    7.3500 S   0  0  0  0  0  0  0  0  0  0  0  0
  -89.2150  -11.7267    5.3877 N   0  0  0  0  0  0  0  0  0  0  0  0
  -90.1388  -12.3504    6.1937 C   0  0  0  0  0  0  0  0  0  0  0  0
  -89.6180  -12.9483    7.3193 C   0  0  0  0  0  0  0  0  0  0  0  0
  -90.2207  -13.6530    8.3996 C   0  0  0  0  0  0  0  0  0  0  0  0
  -89.6091  -13.9564    9.4320 O   0  0  0  0  0  0  0  0  0  0  0  0
  -91.5400  -13.9515    8.2120 N   0  0  0  0  0  0  0  0  0  0  0  0
  -92.2253  -14.5862    9.2503 C   0  0  0  0  0  0  0  0  0  0  0  0
  -92.2863  -15.9755    9.2937 C   0  0  0  0  0  0  0  0  0  0  0  0
  -91.5902  -16.9493    8.0498 Cl  0  0  0  0  0  0  0  0  0  0  0  0
  -92.9292  -16.5871   10.3647 C   0  0  0  0  0  0  0  0  0  0  0  0
  -93.5041  -15.8226   11.3974 C   0  0  0  0  0  0  0  0  0  0  0  0
  -93.4242  -14.4233   11.3400 C   0  0  0  0  0  0  0  0  0  0  0  0
  -92.7786  -13.8109   10.2742 C   0  0  0  0  0  0  0  0  0  0  0  0
  -92.6912  -12.3192   10.2620 C   0  0  0  0  0  0  0  0  0  0  0  0
  -78.5935   -7.5894    3.3450 H   0  0  0  0  0  0  0  0  0  0  0  0
  -79.5101   -7.8590    1.8679 H   0  0  0  0  0  0  0  0  0  0  0  0
  -77.9199   -9.3079    1.4433 H   0  0  0  0  0  0  0  0  0  0  0  0
  -78.8429  -11.1008    3.5763 H   0  0  0  0  0  0  0  0  0  0  0  0
  -78.2509  -11.5029    1.9726 H   0  0  0  0  0  0  0  0  0  0  0  0
  -80.6966  -11.8204    2.0951 H   0  0  0  0  0  0  0  0  0  0  0  0
  -80.2818  -10.6008    0.9326 H   0  0  0  0  0  0  0  0  0  0  0  0
  -81.6726   -9.1943    1.9538 H   0  0  0  0  0  0  0  0  0  0  0  0
  -82.9053   -9.6122    3.8511 H   0  0  0  0  0  0  0  0  0  0  0  0
  -84.8235  -11.3705    3.7367 H   0  0  0  0  0  0  0  0  0  0  0  0
  -81.8362  -11.5910    6.8287 H   0  0  0  0  0  0  0  0  0  0  0  0
  -83.6276  -11.5816    8.5628 H   0  0  0  0  0  0  0  0  0  0  0  0
  -85.9344  -11.4145    7.8969 H   0  0  0  0  0  0  0  0  0  0  0  0
  -87.0653  -10.9156    4.4053 H   0  0  0  0  0  0  0  0  0  0  0  0
  -91.1879  -12.3376    5.9344 H   0  0  0  0  0  0  0  0  0  0  0  0
  -92.0610  -13.6995    7.3873 H   0  0  0  0  0  0  0  0  0  0  0  0
  -92.9913  -17.6648   10.4037 H   0  0  0  0  0  0  0  0  0  0  0  0
  -93.9891  -16.2997   12.2167 H   0  0  0  0  0  0  0  0  0  0  0  0
  -93.8451  -13.8255   12.1434 H   0  0  0  0  0  0  0  0  0  0  0  0
  -92.1627  -11.9509    9.3799 H   0  0  0  0  0  0  0  0  0  0  0  0
  -92.1519  -11.9797   11.1497 H   0  0  0  0  0  0  0  0  0  0  0  0
  -93.7057  -11.9169   10.2374 H   0  0  0  0  0  0  0  0  0  0  0  0
  1  2  1  0  0  0  0
  2  3  1  0  0  0  0
  2  4  1  0  0  0  0
  2  8  1  0  0  0  0
  4  5  1  0  0  0  0
  4 35  1  0  0  0  0
  4 36  1  0  0  0  0
  5  6  1  0  0  0  0
  5 37  1  0  0  0  0
  6  7  1  0  0  0  0
  6 38  1  0  0  0  0
  6 39  1  0  0  0  0
  7  8  1  0  0  0  0
  7 40  1  0  0  0  0
  7 41  1  0  0  0  0
  8  9  1  0  0  0  0
  8 42  1  6  0  0  0
  9 10  1  0  0  0  0
  9 43  1  0  0  0  0
 10 11  2  0  0  0  0
 10 12  1  0  0  0  0
 12 13  2  0  0  0  0
 12 14  1  0  0  0  0
 13 17  1  0  0  0  0
 13 44  1  0  0  0  0
 14 15  2  0  0  0  0
 14 45  1  0  0  0  0
 15 16  1  0  0  0  0
 15 46  1  0  0  0  0
 16 17  2  0  0  0  0
 16 47  1  0  0  0  0
 17 18  1  0  0  0  0
 18 19  1  0  0  0  0
 18 48  1  0  0  0  0
 19 20  1  0  0  0  0
 19 21  2  0  0  0  0
 20 23  1  0  0  0  0
 21 22  1  0  0  0  0
 22 23  2  0  0  0  0
 22 49  1  0  0  0  0
 23 24  1  0  0  0  0
 24 25  2  0  0  0  0
 24 26  1  0  0  0  0
 26 27  1  0  0  0  0
 26 50  1  0  0  0  0
 27 28  2  0  0  0  0
 27 33  1  0  0  0  0
 28 29  1  0  0  0  0
 28 30  1  0  0  0  0
 30 31  2  0  0  0  0
 30 51  1  0  0  0  0
 31 32  1  0  0  0  0
 31 52  1  0  0  0  0
 32 33  2  0  0  0  0
 32 53  1  0  0  0  0
 33 34  1  0  0  0  0
 34 54  1  0  0  0  0
 34 55  1  0  0  0  0
 34 56  1  0  0  0  0
M  END
$$$$
