90W
 OpenBabel04161911343D

 58 61  0  0  1  0  0  0  0  0999 V2000
  -81.7694  -15.0117   11.1651 C   0  0  0  0  0  0  0  0  0  0  0  0
  -81.3511  -14.9495   12.6238 C   0  0  0  0  0  0  0  0  0  0  0  0
  -80.0931  -14.0880   12.7850 C   0  0  2  0  0  0  0  0  0  0  0  0
  -80.2278  -13.3400   13.9899 O   0  0  0  0  0  0  0  0  0  0  0  0
  -79.8537  -13.1310   11.6079 C   0  0  0  0  0  0  0  0  0  0  0  0
  -81.1680  -12.5172   11.1308 C   0  0  0  0  0  0  0  0  0  0  0  0
  -82.1860  -13.5986   10.7467 C   0  0  1  0  0  0  0  0  0  0  0  0
  -82.4480  -13.5683    9.3284 N   0  0  0  0  0  0  0  0  0  0  0  0
  -83.7407  -13.4317    8.8847 C   0  0  0  0  0  0  0  0  0  0  0  0
  -84.6907  -13.2795    9.6448 O   0  0  0  0  0  0  0  0  0  0  0  0
  -83.9680  -13.4849    7.4221 C   0  0  0  0  0  0  0  0  0  0  0  0
  -85.3069  -13.4604    7.0177 C   0  0  0  0  0  0  0  0  0  0  0  0
  -82.9591  -13.5526    6.4622 C   0  0  0  0  0  0  0  0  0  0  0  0
  -83.3040  -13.6107    5.1152 C   0  0  0  0  0  0  0  0  0  0  0  0
  -84.6490  -13.6058    4.7309 C   0  0  0  0  0  0  0  0  0  0  0  0
  -85.6729  -13.5309    5.6755 C   0  0  0  0  0  0  0  0  0  0  0  0
  -87.0076  -13.6214    5.2488 N   0  0  0  0  0  0  0  0  0  0  0  0
  -88.1040  -14.0940    5.8843 C   0  0  0  0  0  0  0  0  0  0  0  0
  -88.1006  -14.9509    7.3761 S   0  0  0  0  0  0  0  0  0  0  0  0
  -89.2988  -13.9998    5.3332 N   0  0  0  0  0  0  0  0  0  0  0  0
  -90.2585  -14.5632    6.1545 C   0  0  0  0  0  0  0  0  0  0  0  0
  -89.7953  -15.0855    7.3417 C   0  0  0  0  0  0  0  0  0  0  0  0
  -90.4589  -15.7011    8.4655 C   0  0  0  0  0  0  0  0  0  0  0  0
  -89.8946  -15.9686    9.5206 O   0  0  0  0  0  0  0  0  0  0  0  0
  -91.7986  -16.0031    8.2574 N   0  0  0  0  0  0  0  0  0  0  0  0
  -92.4916  -16.7141    9.2476 C   0  0  0  0  0  0  0  0  0  0  0  0
  -93.0735  -15.9998   10.3092 C   0  0  0  0  0  0  0  0  0  0  0  0
  -93.0390  -14.2652   10.3578 Cl  0  0  0  0  0  0  0  0  0  0  0  0
  -93.7209  -16.6772   11.3365 C   0  0  0  0  0  0  0  0  0  0  0  0
  -93.7761  -18.0630   11.3127 C   0  0  0  0  0  0  0  0  0  0  0  0
  -93.1901  -18.7868   10.2739 C   0  0  0  0  0  0  0  0  0  0  0  0
  -92.5366  -18.1172    9.2222 C   0  0  0  0  0  0  0  0  0  0  0  0
  -91.8570  -18.9478    8.1647 C   0  0  0  0  0  0  0  0  0  0  0  0
  -82.5958  -15.7167   11.0180 H   0  0  0  0  0  0  0  0  0  0  0  0
  -80.9416  -15.3819   10.5439 H   0  0  0  0  0  0  0  0  0  0  0  0
  -81.1763  -15.9554   13.0164 H   0  0  0  0  0  0  0  0  0  0  0  0
  -82.1814  -14.5358   13.2151 H   0  0  0  0  0  0  0  0  0  0  0  0
  -79.2182  -14.7400   12.8998 H   0  0  0  0  0  0  0  0  0  0  0  0
  -79.4240  -12.8053   14.1011 H   0  0  0  0  0  0  0  0  0  0  0  0
  -79.4029  -13.6807   10.7707 H   0  0  0  0  0  0  0  0  0  0  0  0
  -79.1579  -12.3332   11.8809 H   0  0  0  0  0  0  0  0  0  0  0  0
  -80.9846  -11.8255   10.2999 H   0  0  0  0  0  0  0  0  0  0  0  0
  -81.5912  -11.9113   11.9429 H   0  0  0  0  0  0  0  0  0  0  0  0
  -83.1133  -13.3623   11.2828 H   0  0  0  0  0  0  0  0  0  0  0  0
  -81.6872  -13.7557    8.6967 H   0  0  0  0  0  0  0  0  0  0  0  0
  -86.0600  -13.3630    7.7941 H   0  0  0  0  0  0  0  0  0  0  0  0
  -81.9094  -13.5531    6.7234 H   0  0  0  0  0  0  0  0  0  0  0  0
  -82.5269  -13.6707    4.3574 H   0  0  0  0  0  0  0  0  0  0  0  0
  -84.8916  -13.6831    3.6726 H   0  0  0  0  0  0  0  0  0  0  0  0
  -87.1814  -13.2392    4.3254 H   0  0  0  0  0  0  0  0  0  0  0  0
  -91.2864  -14.5410    5.8216 H   0  0  0  0  0  0  0  0  0  0  0  0
  -92.1772  -16.0094    7.3220 H   0  0  0  0  0  0  0  0  0  0  0  0
  -94.1732  -16.1244   12.1507 H   0  0  0  0  0  0  0  0  0  0  0  0
  -94.2733  -18.5957   12.1292 H   0  0  0  0  0  0  0  0  0  0  0  0
  -93.2125  -19.8718   10.2991 H   0  0  0  0  0  0  0  0  0  0  0  0
  -91.3529  -18.3419    7.4109 H   0  0  0  0  0  0  0  0  0  0  0  0
  -92.6016  -19.5646    7.6504 H   0  0  0  0  0  0  0  0  0  0  0  0
  -91.1054  -19.5962    8.6229 H   0  0  0  0  0  0  0  0  0  0  0  0
  1  2  1  0  0  0  0
  1  7  1  0  0  0  0
  1 34  1  0  0  0  0
  1 35  1  0  0  0  0
  2  3  1  0  0  0  0
  2 36  1  0  0  0  0
  2 37  1  0  0  0  0
  3  4  1  0  0  0  0
  3  5  1  0  0  0  0
  3 38  1  1  0  0  0
  4 39  1  0  0  0  0
  5  6  1  0  0  0  0
  5 40  1  0  0  0  0
  5 41  1  0  0  0  0
  6  7  1  0  0  0  0
  6 42  1  0  0  0  0
  6 43  1  0  0  0  0
  7  8  1  0  0  0  0
  7 44  1  1  0  0  0
  8  9  1  0  0  0  0
  8 45  1  0  0  0  0
  9 10  2  0  0  0  0
  9 11  1  0  0  0  0
 11 12  2  0  0  0  0
 11 13  1  0  0  0  0
 12 16  1  0  0  0  0
 12 46  1  0  0  0  0
 13 14  2  0  0  0  0
 13 47  1  0  0  0  0
 14 15  1  0  0  0  0
 14 48  1  0  0  0  0
 15 16  2  0  0  0  0
 15 49  1  0  0  0  0
 16 17  1  0  0  0  0
 17 18  1  0  0  0  0
 17 50  1  0  0  0  0
 18 19  1  0  0  0  0
 18 20  2  0  0  0  0
 19 22  1  0  0  0  0
 20 21  1  0  0  0  0
 21 22  2  0  0  0  0
 21 51  1  0  0  0  0
 22 23  1  0  0  0  0
 23 24  2  0  0  0  0
 23 25  1  0  0  0  0
 25 26  1  0  0  0  0
 25 52  1  0  0  0  0
 26 27  2  0  0  0  0
 26 32  1  0  0  0  0
 27 28  1  0  0  0  0
 27 29  1  0  0  0  0
 29 30  2  0  0  0  0
 29 53  1  0  0  0  0
 30 31  1  0  0  0  0
 30 54  1  0  0  0  0
 31 32  2  0  0  0  0
 31 55  1  0  0  0  0
 32 33  1  0  0  0  0
 33 56  1  0  0  0  0
 33 57  1  0  0  0  0
 33 58  1  0  0  0  0
M  END
$$$$
