912
 OpenBabel04161911343D

 61 64  0  0  1  0  0  0  0  0999 V2000
  -80.1140  -10.7024    9.2552 C   0  0  0  0  0  0  0  0  0  0  0  0
  -78.7754  -11.3579    9.4894 C   0  0  0  0  0  0  0  0  0  0  0  0
  -78.6883  -11.7639   10.9729 C   0  0  2  0  0  0  0  0  0  0  0  0
  -78.4729  -10.5036   11.8065 C   0  0  0  0  0  0  0  0  0  0  0  0
  -77.5488  -12.6147   11.0835 O   0  0  0  0  0  0  0  0  0  0  0  0
  -79.9468  -12.4927   11.5558 C   0  0  0  0  0  0  0  0  0  0  0  0
  -81.2953  -11.9746   11.0106 C   0  0  0  0  0  0  0  0  0  0  0  0
  -81.0784  -11.8475    9.5271 C   0  0  1  0  0  0  0  0  0  0  0  0
  -82.1563  -11.8826    8.6259 N   0  0  0  0  0  0  0  0  0  0  0  0
  -83.1879  -11.0079    8.5288 C   0  0  0  0  0  0  0  0  0  0  0  0
  -83.6775  -10.3421    9.4220 O   0  0  0  0  0  0  0  0  0  0  0  0
  -83.6599  -10.9801    7.1234 C   0  0  0  0  0  0  0  0  0  0  0  0
  -85.0125  -11.0273    6.8598 C   0  0  0  0  0  0  0  0  0  0  0  0
  -82.7216  -11.0145    6.0834 C   0  0  0  0  0  0  0  0  0  0  0  0
  -83.1364  -11.1148    4.7688 C   0  0  0  0  0  0  0  0  0  0  0  0
  -84.4886  -11.1601    4.4891 C   0  0  0  0  0  0  0  0  0  0  0  0
  -85.4288  -11.0944    5.5296 C   0  0  0  0  0  0  0  0  0  0  0  0
  -86.7676  -11.1908    5.1398 N   0  0  0  0  0  0  0  0  0  0  0  0
  -87.8131  -11.7053    5.8010 C   0  0  0  0  0  0  0  0  0  0  0  0
  -87.7137  -12.5713    7.2823 S   0  0  0  0  0  0  0  0  0  0  0  0
  -89.0186  -11.6338    5.2879 N   0  0  0  0  0  0  0  0  0  0  0  0
  -89.9154  -12.1950    6.1583 C   0  0  0  0  0  0  0  0  0  0  0  0
  -89.3955  -12.7258    7.3070 C   0  0  0  0  0  0  0  0  0  0  0  0
  -90.0034  -13.3624    8.4530 C   0  0  0  0  0  0  0  0  0  0  0  0
  -89.4181  -13.6341    9.4705 O   0  0  0  0  0  0  0  0  0  0  0  0
  -91.3423  -13.6846    8.2399 N   0  0  0  0  0  0  0  0  0  0  0  0
  -92.0320  -14.3531    9.2543 C   0  0  0  0  0  0  0  0  0  0  0  0
  -92.4937  -13.6294   10.3537 C   0  0  0  0  0  0  0  0  0  0  0  0
  -92.2877  -11.9101   10.4642 Cl  0  0  0  0  0  0  0  0  0  0  0  0
  -93.1962  -14.2754   11.3561 C   0  0  0  0  0  0  0  0  0  0  0  0
  -93.4243  -15.6512   11.2762 C   0  0  0  0  0  0  0  0  0  0  0  0
  -92.9446  -16.3810   10.1941 C   0  0  0  0  0  0  0  0  0  0  0  0
  -92.2395  -15.7370    9.1669 C   0  0  0  0  0  0  0  0  0  0  0  0
  -91.6758  -16.5857    8.0702 C   0  0  0  0  0  0  0  0  0  0  0  0
  -80.1860  -10.2813    8.2501 H   0  0  0  0  0  0  0  0  0  0  0  0
  -80.2887   -9.8643    9.9414 H   0  0  0  0  0  0  0  0  0  0  0  0
  -77.9449  -10.7117    9.1866 H   0  0  0  0  0  0  0  0  0  0  0  0
  -78.6854  -12.2458    8.8442 H   0  0  0  0  0  0  0  0  0  0  0  0
  -78.3489  -10.7599   12.8597 H   0  0  0  0  0  0  0  0  0  0  0  0
  -79.3332   -9.8298   11.7410 H   0  0  0  0  0  0  0  0  0  0  0  0
  -77.5846   -9.9617   11.4733 H   0  0  0  0  0  0  0  0  0  0  0  0
  -77.6615  -13.3412   10.4420 H   0  0  0  0  0  0  0  0  0  0  0  0
  -79.9516  -12.4153   12.6491 H   0  0  0  0  0  0  0  0  0  0  0  0
  -79.8715  -13.5664   11.3368 H   0  0  0  0  0  0  0  0  0  0  0  0
  -81.5706  -11.0097   11.4556 H   0  0  0  0  0  0  0  0  0  0  0  0
  -82.1091  -12.6749   11.2286 H   0  0  0  0  0  0  0  0  0  0  0  0
  -80.6068  -12.7980    9.2374 H   0  0  0  0  0  0  0  0  0  0  0  0
  -81.9298  -12.4014    7.7905 H   0  0  0  0  0  0  0  0  0  0  0  0
  -85.6847  -11.0018    7.7064 H   0  0  0  0  0  0  0  0  0  0  0  0
  -81.6612  -10.9807    6.2871 H   0  0  0  0  0  0  0  0  0  0  0  0
  -82.4130  -11.1616    3.9643 H   0  0  0  0  0  0  0  0  0  0  0  0
  -84.8098  -11.2661    3.4640 H   0  0  0  0  0  0  0  0  0  0  0  0
  -86.9607  -10.8304    4.2106 H   0  0  0  0  0  0  0  0  0  0  0  0
  -90.9643  -12.1635    5.8755 H   0  0  0  0  0  0  0  0  0  0  0  0
  -91.7263  -13.7064    7.3056 H   0  0  0  0  0  0  0  0  0  0  0  0
  -93.5795  -13.7157   12.1948 H   0  0  0  0  0  0  0  0  0  0  0  0
  -93.9804  -16.1501   12.0670 H   0  0  0  0  0  0  0  0  0  0  0  0
  -93.1067  -17.4525   10.1501 H   0  0  0  0  0  0  0  0  0  0  0  0
  -91.1185  -16.0012    7.3355 H   0  0  0  0  0  0  0  0  0  0  0  0
  -92.4968  -17.0913    7.5563 H   0  0  0  0  0  0  0  0  0  0  0  0
  -90.9893  -17.3285    8.4945 H   0  0  0  0  0  0  0  0  0  0  0  0
  1  2  1  0  0  0  0
  1  8  1  0  0  0  0
  1 35  1  0  0  0  0
  1 36  1  0  0  0  0
  2  3  1  0  0  0  0
  2 37  1  0  0  0  0
  2 38  1  0  0  0  0
  3  4  1  1  0  0  0
  3  5  1  0  0  0  0
  3  6  1  0  0  0  0
  4 39  1  0  0  0  0
  4 40  1  0  0  0  0
  4 41  1  0  0  0  0
  5 42  1  0  0  0  0
  6  7  1  0  0  0  0
  6 43  1  0  0  0  0
  6 44  1  0  0  0  0
  7  8  1  0  0  0  0
  7 45  1  0  0  0  0
  7 46  1  0  0  0  0
  8  9  1  0  0  0  0
  8 47  1  6  0  0  0
  9 10  1  0  0  0  0
  9 48  1  0  0  0  0
 10 11  2  0  0  0  0
 10 12  1  0  0  0  0
 12 13  2  0  0  0  0
 12 14  1  0  0  0  0
 13 17  1  0  0  0  0
 13 49  1  0  0  0  0
 14 15  2  0  0  0  0
 14 50  1  0  0  0  0
 15 16  1  0  0  0  0
 15 51  1  0  0  0  0
 16 17  2  0  0  0  0
 16 52  1  0  0  0  0
 17 18  1  0  0  0  0
 18 19  1  0  0  0  0
 18 53  1  0  0  0  0
 19 20  1  0  0  0  0
 19 21  2  0  0  0  0
 20 23  1  0  0  0  0
 21 22  1  0  0  0  0
 22 23  2  0  0  0  0
 22 54  1  0  0  0  0
 23 24  1  0  0  0  0
 24 25  2  0  0  0  0
 24 26  1  0  0  0  0
 26 27  1  0  0  0  0
 26 55  1  0  0  0  0
 27 28  2  0  0  0  0
 27 33  1  0  0  0  0
 28 29  1  0  0  0  0
 28 30  1  0  0  0  0
 30 31  2  0  0  0  0
 30 56  1  0  0  0  0
 31 32  1  0  0  0  0
 31 57  1  0  0  0  0
 32 33  2  0  0  0  0
 32 58  1  0  0  0  0
 33 34  1  0  0  0  0
 34 59  1  0  0  0  0
 34 60  1  0  0  0  0
 34 61  1  0  0  0  0
M  END
$$$$
