91K
 OpenBabel04161911353D

 56 59  0  0  1  0  0  0  0  0999 V2000
  -79.2637  -17.7846   -0.7600 O   0  0  0  0  0  0  0  0  0  0  0  0
  -78.4500  -17.7360    0.2036 C   0  0  0  0  0  0  0  0  0  0  0  0
  -77.4263  -18.4415    0.4214 O   0  0  0  0  0  0  0  0  0  0  0  0
  -78.7322  -16.6873    1.2856 C   0  0  0  0  0  0  0  0  0  0  0  0
  -80.2029  -16.2747    1.2971 C   0  0  2  0  0  0  0  0  0  0  0  0
  -80.4478  -15.0506    2.1783 C   0  0  0  0  0  0  0  0  0  0  0  0
  -81.0728  -17.3830    1.9186 C   0  0  0  0  0  0  0  0  0  0  0  0
  -81.2017  -16.9557    3.3721 C   0  0  0  0  0  0  0  0  0  0  0  0
  -81.3024  -15.5099    3.2551 N   0  0  0  0  0  0  0  0  0  0  0  0
  -82.1736  -14.6225    3.8436 C   0  0  0  0  0  0  0  0  0  0  0  0
  -82.2078  -13.4209    3.5718 O   0  0  0  0  0  0  0  0  0  0  0  0
  -83.1140  -15.0793    4.8640 C   0  0  0  0  0  0  0  0  0  0  0  0
  -84.4799  -15.1275    4.5482 C   0  0  0  0  0  0  0  0  0  0  0  0
  -82.6682  -15.2648    6.1690 C   0  0  0  0  0  0  0  0  0  0  0  0
  -83.5959  -15.5341    7.1614 C   0  0  0  0  0  0  0  0  0  0  0  0
  -84.9550  -15.5860    6.8437 C   0  0  0  0  0  0  0  0  0  0  0  0
  -85.4323  -15.3901    5.5404 C   0  0  0  0  0  0  0  0  0  0  0  0
  -86.7852  -15.4797    5.1586 N   0  0  0  0  0  0  0  0  0  0  0  0
  -87.8745  -15.9606    5.8061 C   0  0  0  0  0  0  0  0  0  0  0  0
  -87.8474  -16.7895    7.3103 S   0  0  0  0  0  0  0  0  0  0  0  0
  -89.0771  -15.8736    5.2840 N   0  0  0  0  0  0  0  0  0  0  0  0
  -90.0202  -16.4276    6.1211 C   0  0  0  0  0  0  0  0  0  0  0  0
  -89.5269  -16.9575    7.3006 C   0  0  0  0  0  0  0  0  0  0  0  0
  -90.1595  -17.6014    8.4149 C   0  0  0  0  0  0  0  0  0  0  0  0
  -89.5560  -17.8853    9.4603 O   0  0  0  0  0  0  0  0  0  0  0  0
  -91.4870  -17.9312    8.2186 N   0  0  0  0  0  0  0  0  0  0  0  0
  -92.1706  -18.6249    9.2185 C   0  0  0  0  0  0  0  0  0  0  0  0
  -92.6403  -17.9174   10.3305 C   0  0  0  0  0  0  0  0  0  0  0  0
  -92.4557  -16.1986   10.4433 Cl  0  0  0  0  0  0  0  0  0  0  0  0
  -93.3165  -18.5868   11.3409 C   0  0  0  0  0  0  0  0  0  0  0  0
  -93.5086  -19.9694   11.2621 C   0  0  0  0  0  0  0  0  0  0  0  0
  -93.0308  -20.6797   10.1632 C   0  0  0  0  0  0  0  0  0  0  0  0
  -92.3613  -20.0135    9.1267 C   0  0  0  0  0  0  0  0  0  0  0  0
  -91.8266  -20.8269    7.9889 C   0  0  0  0  0  0  0  0  0  0  0  0
  -78.0920  -15.8174    1.0975 H   0  0  0  0  0  0  0  0  0  0  0  0
  -78.4472  -17.0905    2.2664 H   0  0  0  0  0  0  0  0  0  0  0  0
  -80.5416  -16.0473    0.2787 H   0  0  0  0  0  0  0  0  0  0  0  0
  -80.9208  -14.2371    1.6194 H   0  0  0  0  0  0  0  0  0  0  0  0
  -79.5275  -14.6658    2.6329 H   0  0  0  0  0  0  0  0  0  0  0  0
  -80.6466  -18.3852    1.8075 H   0  0  0  0  0  0  0  0  0  0  0  0
  -82.0613  -17.3802    1.4445 H   0  0  0  0  0  0  0  0  0  0  0  0
  -80.2729  -17.1761    3.9139 H   0  0  0  0  0  0  0  0  0  0  0  0
  -82.0387  -17.4282    3.8902 H   0  0  0  0  0  0  0  0  0  0  0  0
  -84.7911  -14.9322    3.5244 H   0  0  0  0  0  0  0  0  0  0  0  0
  -81.6174  -15.1559    6.4159 H   0  0  0  0  0  0  0  0  0  0  0  0
  -83.2839  -15.6827    8.1899 H   0  0  0  0  0  0  0  0  0  0  0  0
  -85.6148  -15.7496    7.6840 H   0  0  0  0  0  0  0  0  0  0  0  0
  -86.9827  -15.1106    4.2367 H   0  0  0  0  0  0  0  0  0  0  0  0
  -91.0588  -16.4108    5.8226 H   0  0  0  0  0  0  0  0  0  0  0  0
  -91.9182  -17.8666    7.3043 H   0  0  0  0  0  0  0  0  0  0  0  0
  -93.6987  -18.0379   12.1943 H   0  0  0  0  0  0  0  0  0  0  0  0
  -94.0332  -20.4941   12.0572 H   0  0  0  0  0  0  0  0  0  0  0  0
  -93.1713  -21.7592   10.1161 H   0  0  0  0  0  0  0  0  0  0  0  0
  -91.2950  -20.2136    7.2579 H   0  0  0  0  0  0  0  0  0  0  0  0
  -92.6599  -21.3151    7.4772 H   0  0  0  0  0  0  0  0  0  0  0  0
  -91.1238  -21.5789    8.3631 H   0  0  0  0  0  0  0  0  0  0  0  0
  1  2  2  0  0  0  0
  2  3  1  0  0  0  0
  2  4  1  0  0  0  0
  4  5  1  0  0  0  0
  4 35  1  0  0  0  0
  4 36  1  0  0  0  0
  5  6  1  0  0  0  0
  5  7  1  0  0  0  0
  5 37  1  6  0  0  0
  6  9  1  0  0  0  0
  6 38  1  0  0  0  0
  6 39  1  0  0  0  0
  7  8  1  0  0  0  0
  7 40  1  0  0  0  0
  7 41  1  0  0  0  0
  8  9  1  0  0  0  0
  8 42  1  0  0  0  0
  8 43  1  0  0  0  0
  9 10  1  0  0  0  0
 10 11  2  0  0  0  0
 10 12  1  0  0  0  0
 12 13  2  0  0  0  0
 12 14  1  0  0  0  0
 13 17  1  0  0  0  0
 13 44  1  0  0  0  0
 14 15  2  0  0  0  0
 14 45  1  0  0  0  0
 15 16  1  0  0  0  0
 15 46  1  0  0  0  0
 16 17  2  0  0  0  0
 16 47  1  0  0  0  0
 17 18  1  0  0  0  0
 18 19  1  0  0  0  0
 18 48  1  0  0  0  0
 19 20  1  0  0  0  0
 19 21  2  0  0  0  0
 20 23  1  0  0  0  0
 21 22  1  0  0  0  0
 22 23  2  0  0  0  0
 22 49  1  0  0  0  0
 23 24  1  0  0  0  0
 24 25  2  0  0  0  0
 24 26  1  0  0  0  0
 26 27  1  0  0  0  0
 26 50  1  0  0  0  0
 27 28  2  0  0  0  0
 27 33  1  0  0  0  0
 28 29  1  0  0  0  0
 28 30  1  0  0  0  0
 30 31  2  0  0  0  0
 30 51  1  0  0  0  0
 31 32  1  0  0  0  0
 31 52  1  0  0  0  0
 32 33  2  0  0  0  0
 32 53  1  0  0  0  0
 33 34  1  0  0  0  0
 34 54  1  0  0  0  0
 34 55  1  0  0  0  0
 34 56  1  0  0  0  0
M  END
$$$$
