92A
 OpenBabel04161912083D

 77 79  0  0  1  0  0  0  0  0999 V2000
    0.5893   24.4827   15.6503 C   0  0  0  0  0  0  0  0  0  0  0  0
   -0.1855   24.4862   14.3424 C   0  0  0  0  0  0  0  0  0  0  0  0
   -1.6342   24.7261   14.5938 C   0  0  0  0  0  0  0  0  0  0  0  0
   -7.1069   22.8062   13.8067 C   0  0  0  0  0  0  0  0  0  0  0  0
   -8.8799   23.0117   15.4332 C   0  0  0  0  0  0  0  0  0  0  0  0
  -11.1318   23.8189   14.9996 C   0  0  0  0  0  0  0  0  0  0  0  0
  -13.4129   22.9969   14.4875 C   0  0  0  0  0  0  0  0  0  0  0  0
  -13.1698   21.5416   14.7757 C   0  0  0  0  0  0  0  0  0  0  0  0
  -13.9424   20.8748   15.7263 C   0  0  0  0  0  0  0  0  0  0  0  0
  -12.6637   18.8678   15.3692 C   0  0  0  0  0  0  0  0  0  0  0  0
  -11.8814   19.5290   14.4321 C   0  0  0  0  0  0  0  0  0  0  0  0
   -7.9427   22.9518   16.4563 C   0  0  0  0  0  0  0  0  0  0  0  0
   -4.2117   24.9048   12.6411 O   0  0  0  0  0  0  0  0  0  0  0  0
   -4.4448   25.0010   13.8498 C   0  0  0  0  0  0  0  0  0  0  0  0
   -5.1744   26.0354   14.3706 N   0  0  0  0  0  0  0  0  0  0  0  0
   -5.6603   27.0794   13.4810 C   0  0  0  0  0  0  0  0  0  0  0  0
   -7.1503   27.3333   13.6665 C   0  0  0  0  0  0  0  0  0  0  0  0
   -7.7227   26.7421   14.9559 C   0  0  2  0  0  0  0  0  0  0  0  0
   -9.0210   27.4418   15.3103 C   0  0  0  0  0  0  0  0  0  0  0  0
   -6.7275   26.8985   16.0979 C   0  0  0  0  0  0  0  0  0  0  0  0
   -5.4447   26.1575   15.8033 C   0  0  0  0  0  0  0  0  0  0  0  0
   -3.9254   23.9058   14.7856 C   0  0  2  0  0  0  0  0  0  0  0  0
   -2.4981   23.6877   14.5392 N   0  0  0  0  0  0  0  0  0  0  0  0
   -2.0163   25.8751   14.8816 O   0  0  0  0  0  0  0  0  0  0  0  0
    1.9561   23.8333   15.4449 C   0  0  0  0  0  0  0  0  0  0  0  0
    1.7675   22.3549   15.1325 C   0  0  0  0  0  0  0  0  0  0  0  0
    2.8022   23.9841   16.6985 C   0  0  0  0  0  0  0  0  0  0  0  0
   -4.7080   22.6313   14.5073 C   0  0  0  0  0  0  0  0  0  0  0  0
   -6.1692   22.7529   14.8317 C   0  0  0  0  0  0  0  0  0  0  0  0
   -6.5929   22.8350   16.1563 C   0  0  0  0  0  0  0  0  0  0  0  0
   -8.4572   22.9353   14.1067 C   0  0  0  0  0  0  0  0  0  0  0  0
  -10.2513   23.1205   15.7510 N   0  0  0  0  0  0  0  0  0  0  0  0
  -10.8078   24.4317   13.9617 O   0  0  0  0  0  0  0  0  0  0  0  0
  -12.5761   23.8524   15.4245 C   0  0  0  0  0  0  0  0  0  0  0  0
  -12.1343   20.8653   14.1353 C   0  0  0  0  0  0  0  0  0  0  0  0
  -12.3541   17.2192   15.7321 Cl  0  0  0  0  0  0  0  0  0  0  0  0
  -13.6920   19.5368   16.0170 C   0  0  0  0  0  0  0  0  0  0  0  0
    0.0293   23.9342   16.4191 H   0  0  0  0  0  0  0  0  0  0  0  0
    0.7153   25.5156   16.0035 H   0  0  0  0  0  0  0  0  0  0  0  0
   -0.0864   23.5322   13.8181 H   0  0  0  0  0  0  0  0  0  0  0  0
    0.2018   25.2629   13.6820 H   0  0  0  0  0  0  0  0  0  0  0  0
   -6.7934   22.7484   12.7674 H   0  0  0  0  0  0  0  0  0  0  0  0
  -14.4782   23.2110   14.6274 H   0  0  0  0  0  0  0  0  0  0  0  0
  -13.1671   23.2003   13.4381 H   0  0  0  0  0  0  0  0  0  0  0  0
  -14.7466   21.4024   16.2351 H   0  0  0  0  0  0  0  0  0  0  0  0
  -11.0762   19.0126   13.9214 H   0  0  0  0  0  0  0  0  0  0  0  0
   -8.2523   23.0336   17.4913 H   0  0  0  0  0  0  0  0  0  0  0  0
   -5.4786   26.8016   12.4316 H   0  0  0  0  0  0  0  0  0  0  0  0
   -5.0986   28.0021   13.6695 H   0  0  0  0  0  0  0  0  0  0  0  0
   -7.6955   26.9132   12.8119 H   0  0  0  0  0  0  0  0  0  0  0  0
   -7.3171   28.4173   13.6631 H   0  0  0  0  0  0  0  0  0  0  0  0
   -7.9221   25.6767   14.7967 H   0  0  0  0  0  0  0  0  0  0  0  0
   -9.4402   27.0246   16.2306 H   0  0  0  0  0  0  0  0  0  0  0  0
   -9.7511   27.3239   14.5041 H   0  0  0  0  0  0  0  0  0  0  0  0
   -8.8414   28.5116   15.4649 H   0  0  0  0  0  0  0  0  0  0  0  0
   -7.1597   26.5171   17.0294 H   0  0  0  0  0  0  0  0  0  0  0  0
   -6.4941   27.9569   16.2388 H   0  0  0  0  0  0  0  0  0  0  0  0
   -4.5910   26.6426   16.2832 H   0  0  0  0  0  0  0  0  0  0  0  0
   -5.5385   25.1651   16.2277 H   0  0  0  0  0  0  0  0  0  0  0  0
   -4.0281   24.1968   15.8333 H   0  0  0  0  0  0  0  0  0  0  0  0
   -2.1748   22.7544   14.3174 H   0  0  0  0  0  0  0  0  0  0  0  0
    2.4668   24.3207   14.6052 H   0  0  0  0  0  0  0  0  0  0  0  0
    2.7289   21.8691   14.9680 H   0  0  0  0  0  0  0  0  0  0  0  0
    1.1776   22.2130   14.2254 H   0  0  0  0  0  0  0  0  0  0  0  0
    1.2450   21.8563   15.9546 H   0  0  0  0  0  0  0  0  0  0  0  0
    2.9513   25.0424   16.9324 H   0  0  0  0  0  0  0  0  0  0  0  0
    3.7814   23.5171   16.5530 H   0  0  0  0  0  0  0  0  0  0  0  0
    2.3096   23.5041   17.5507 H   0  0  0  0  0  0  0  0  0  0  0  0
   -4.2886   21.8170   15.1058 H   0  0  0  0  0  0  0  0  0  0  0  0
   -4.5948   22.3569   13.4504 H   0  0  0  0  0  0  0  0  0  0  0  0
   -5.8589   22.8151   16.9601 H   0  0  0  0  0  0  0  0  0  0  0  0
   -9.1762   22.9515   13.2921 H   0  0  0  0  0  0  0  0  0  0  0  0
  -10.5632   22.6831   16.6184 H   0  0  0  0  0  0  0  0  0  0  0  0
  -12.9210   24.8913   15.3703 H   0  0  0  0  0  0  0  0  0  0  0  0
  -12.6732   23.5066   16.4594 H   0  0  0  0  0  0  0  0  0  0  0  0
  -11.5171   21.3856   13.4025 H   0  0  0  0  0  0  0  0  0  0  0  0
  -14.3110   19.0263   16.7471 H   0  0  0  0  0  0  0  0  0  0  0  0
  1  2  1  0  0  0  0
  1 25  1  0  0  0  0
  1 38  1  0  0  0  0
  1 39  1  0  0  0  0
  2  3  1  0  0  0  0
  2 40  1  0  0  0  0
  2 41  1  0  0  0  0
  3 23  1  0  0  0  0
  3 24  2  0  0  0  0
  4 29  2  0  0  0  0
  4 31  1  0  0  0  0
  4 42  1  0  0  0  0
  5 12  1  0  0  0  0
  5 31  2  0  0  0  0
  5 32  1  0  0  0  0
  6 32  1  0  0  0  0
  6 33  2  0  0  0  0
  6 34  1  0  0  0  0
  7  8  1  0  0  0  0
  7 34  1  0  0  0  0
  7 43  1  0  0  0  0
  7 44  1  0  0  0  0
  8  9  2  0  0  0  0
  8 35  1  0  0  0  0
  9 37  1  0  0  0  0
  9 45  1  0  0  0  0
 10 11  1  0  0  0  0
 10 36  1  0  0  0  0
 10 37  2  0  0  0  0
 11 35  2  0  0  0  0
 11 46  1  0  0  0  0
 12 30  2  0  0  0  0
 12 47  1  0  0  0  0
 13 14  2  0  0  0  0
 14 15  1  0  0  0  0
 14 22  1  0  0  0  0
 15 16  1  0  0  0  0
 15 21  1  0  0  0  0
 16 17  1  0  0  0  0
 16 48  1  0  0  0  0
 16 49  1  0  0  0  0
 17 18  1  0  0  0  0
 17 50  1  0  0  0  0
 17 51  1  0  0  0  0
 18 19  1  0  0  0  0
 18 20  1  0  0  0  0
 18 52  1  6  0  0  0
 19 53  1  0  0  0  0
 19 54  1  0  0  0  0
 19 55  1  0  0  0  0
 20 21  1  0  0  0  0
 20 56  1  0  0  0  0
 20 57  1  0  0  0  0
 21 58  1  0  0  0  0
 21 59  1  0  0  0  0
 22 23  1  0  0  0  0
 22 28  1  0  0  0  0
 22 60  1  1  0  0  0
 23 61  1  0  0  0  0
 25 26  1  0  0  0  0
 25 27  1  0  0  0  0
 25 62  1  0  0  0  0
 26 63  1  0  0  0  0
 26 64  1  0  0  0  0
 26 65  1  0  0  0  0
 27 66  1  0  0  0  0
 27 67  1  0  0  0  0
 27 68  1  0  0  0  0
 28 29  1  0  0  0  0
 28 69  1  0  0  0  0
 28 70  1  0  0  0  0
 29 30  1  0  0  0  0
 30 71  1  0  0  0  0
 31 72  1  0  0  0  0
 32 73  1  0  0  0  0
 34 74  1  0  0  0  0
 34 75  1  0  0  0  0
 35 76  1  0  0  0  0
 37 77  1  0  0  0  0
M  END
$$$$
