92Q
 OpenBabel04161911333D

 54 57  0  0  1  0  0  0  0  0999 V2000
  123.0164   38.2459  -23.8756 C   0  0  0  0  0  0  0  0  0  0  0  0
  122.0257   39.3941  -24.0075 C   0  0  0  0  0  0  0  0  0  0  0  0
  120.6802   38.7355  -24.1976 N   0  3  0  0  0  0  0  0  0  0  0  0
  120.9168   37.2622  -24.2295 C   0  0  0  0  0  0  0  0  0  0  0  0
  122.1531   37.1040  -23.3554 C   0  0  1  0  0  0  0  0  0  0  0  0
  122.7565   35.8085  -23.4505 N   0  0  0  0  0  0  0  0  0  0  0  0
  123.7634   35.4268  -22.5946 C   0  0  0  0  0  0  0  0  0  0  0  0
  124.2623   36.1748  -21.7711 O   0  0  0  0  0  0  0  0  0  0  0  0
  124.2096   34.0306  -22.7797 C   0  0  0  0  0  0  0  0  0  0  0  0
  125.5733   33.7579  -22.7995 C   0  0  0  0  0  0  0  0  0  0  0  0
  123.2699   33.0107  -22.9659 C   0  0  0  0  0  0  0  0  0  0  0  0
  123.7046   31.7094  -23.1805 C   0  0  0  0  0  0  0  0  0  0  0  0
  125.0736   31.4361  -23.2076 C   0  0  0  0  0  0  0  0  0  0  0  0
  126.0257   32.4486  -23.0200 C   0  0  0  0  0  0  0  0  0  0  0  0
  127.3778   32.1160  -23.1554 N   0  0  0  0  0  0  0  0  0  0  0  0
  128.4031   32.8183  -23.6736 C   0  0  0  0  0  0  0  0  0  0  0  0
  128.2497   34.2588  -24.6086 S   0  0  0  0  0  0  0  0  0  0  0  0
  129.6402   32.3868  -23.5580 N   0  0  0  0  0  0  0  0  0  0  0  0
  130.5220   33.2476  -24.1713 C   0  0  0  0  0  0  0  0  0  0  0  0
  129.9404   34.3492  -24.7808 C   0  0  0  0  0  0  0  0  0  0  0  0
  130.5377   35.4766  -25.4544 C   0  0  0  0  0  0  0  0  0  0  0  0
  129.8985   36.4744  -25.7897 O   0  0  0  0  0  0  0  0  0  0  0  0
  131.9012   35.3527  -25.6636 N   0  0  0  0  0  0  0  0  0  0  0  0
  132.6204   36.4017  -26.2536 C   0  0  0  0  0  0  0  0  0  0  0  0
  133.0011   36.3445  -27.6033 C   0  0  0  0  0  0  0  0  0  0  0  0
  132.5669   35.0097  -28.6092 Cl  0  0  0  0  0  0  0  0  0  0  0  0
  133.6977   37.4103  -28.1719 C   0  0  0  0  0  0  0  0  0  0  0  0
  134.0373   38.5094  -27.3830 C   0  0  0  0  0  0  0  0  0  0  0  0
  133.6802   38.5533  -26.0348 C   0  0  0  0  0  0  0  0  0  0  0  0
  132.9630   37.5017  -25.4536 C   0  0  0  0  0  0  0  0  0  0  0  0
  132.6233   37.5891  -23.9877 C   0  0  0  0  0  0  0  0  0  0  0  0
  123.8538   38.4958  -23.2180 H   0  0  0  0  0  0  0  0  0  0  0  0
  123.4379   37.9956  -24.8582 H   0  0  0  0  0  0  0  0  0  0  0  0
  122.2176   40.0274  -24.8769 H   0  0  0  0  0  0  0  0  0  0  0  0
  121.9577   39.9943  -23.0956 H   0  0  0  0  0  0  0  0  0  0  0  0
  120.0723   38.9649  -23.3974 H   0  0  0  0  0  0  0  0  0  0  0  0
  121.1179   36.9888  -25.2731 H   0  0  0  0  0  0  0  0  0  0  0  0
  120.0329   36.7340  -23.8662 H   0  0  0  0  0  0  0  0  0  0  0  0
  121.8975   37.2858  -22.3019 H   0  0  0  0  0  0  0  0  0  0  0  0
  122.5120   35.1661  -24.2046 H   0  0  0  0  0  0  0  0  0  0  0  0
  126.2733   34.5703  -22.6324 H   0  0  0  0  0  0  0  0  0  0  0  0
  122.2054   33.2143  -22.9248 H   0  0  0  0  0  0  0  0  0  0  0  0
  122.9887   30.9056  -23.3312 H   0  0  0  0  0  0  0  0  0  0  0  0
  125.3978   30.4155  -23.4030 H   0  0  0  0  0  0  0  0  0  0  0  0
  127.6284   31.1914  -22.8107 H   0  0  0  0  0  0  0  0  0  0  0  0
  131.5735   33.0341  -24.1171 H   0  0  0  0  0  0  0  0  0  0  0  0
  132.3326   34.4380  -25.6692 H   0  0  0  0  0  0  0  0  0  0  0  0
  133.9689   37.3962  -29.2247 H   0  0  0  0  0  0  0  0  0  0  0  0
  134.5874   39.3422  -27.8161 H   0  0  0  0  0  0  0  0  0  0  0  0
  133.9646   39.4142  -25.4356 H   0  0  0  0  0  0  0  0  0  0  0  0
  132.0883   36.7101  -23.6159 H   0  0  0  0  0  0  0  0  0  0  0  0
  131.9891   38.4590  -23.8052 H   0  0  0  0  0  0  0  0  0  0  0  0
  133.5409   37.6679  -23.3994 H   0  0  0  0  0  0  0  0  0  0  0  0
  120.1983   39.0665  -25.0449 H   0  0  0  0  0  0  0  0  0  0  0  0
  1  2  1  0  0  0  0
  1  5  1  0  0  0  0
  1 32  1  0  0  0  0
  1 33  1  0  0  0  0
  2  3  1  0  0  0  0
  2 34  1  0  0  0  0
  2 35  1  0  0  0  0
  3  4  1  0  0  0  0
  3 36  1  0  0  0  0
  3 54  1  0  0  0  0
  4  5  1  0  0  0  0
  4 37  1  0  0  0  0
  4 38  1  0  0  0  0
  5  6  1  0  0  0  0
  5 39  1  1  0  0  0
  6  7  1  0  0  0  0
  6 40  1  0  0  0  0
  7  8  2  0  0  0  0
  7  9  1  0  0  0  0
  9 10  2  0  0  0  0
  9 11  1  0  0  0  0
 10 14  1  0  0  0  0
 10 41  1  0  0  0  0
 11 12  2  0  0  0  0
 11 42  1  0  0  0  0
 12 13  1  0  0  0  0
 12 43  1  0  0  0  0
 13 14  2  0  0  0  0
 13 44  1  0  0  0  0
 14 15  1  0  0  0  0
 15 16  1  0  0  0  0
 15 45  1  0  0  0  0
 16 17  1  0  0  0  0
 16 18  2  0  0  0  0
 17 20  1  0  0  0  0
 18 19  1  0  0  0  0
 19 20  2  0  0  0  0
 19 46  1  0  0  0  0
 20 21  1  0  0  0  0
 21 22  2  0  0  0  0
 21 23  1  0  0  0  0
 23 24  1  0  0  0  0
 23 47  1  0  0  0  0
 24 25  2  0  0  0  0
 24 30  1  0  0  0  0
 25 26  1  0  0  0  0
 25 27  1  0  0  0  0
 27 28  2  0  0  0  0
 27 48  1  0  0  0  0
 28 29  1  0  0  0  0
 28 49  1  0  0  0  0
 29 30  2  0  0  0  0
 29 50  1  0  0  0  0
 30 31  1  0  0  0  0
 31 51  1  0  0  0  0
 31 52  1  0  0  0  0
 31 53  1  0  0  0  0
M  CHG  1   3   1
M  END
$$$$
