93J
 OpenBabel04161912093D

 57 59  0  0  0  0  0  0  0  0999 V2000
   18.7567   14.0600    8.6871 C   0  0  0  0  0  0  0  0  0  0  0  0
   17.7264   11.4753    9.2133 C   0  0  0  0  0  0  0  0  0  0  0  0
   19.4750   13.1542    9.5195 C   0  0  0  0  0  0  0  0  0  0  0  0
   17.0788    8.1111   10.4426 C   0  0  0  0  0  0  0  0  0  0  0  0
   20.5065   17.0087    6.1017 C   0  0  0  0  0  0  0  0  0  0  0  0
   21.1524   18.0249    5.3837 C   0  0  0  0  0  0  0  0  0  0  0  0
   20.5658   19.2796    5.2885 C   0  0  0  0  0  0  0  0  0  0  0  0
   18.6992   18.5195    6.6343 C   0  0  0  0  0  0  0  0  0  0  0  0
   14.7711   12.7676    7.4447 C   0  0  0  0  0  0  0  0  0  0  0  0
   13.4220   12.1956    7.5536 C   0  0  0  0  0  0  0  0  0  0  0  0
   12.4065   12.7293    6.8622 C   0  0  0  0  0  0  0  0  0  0  0  0
   11.0458   12.1808    6.9690 C   0  0  0  0  0  0  0  0  0  0  0  0
   14.8927   13.9084    7.0104 O   0  0  0  0  0  0  0  0  0  0  0  0
   15.7712   11.9511    7.8508 N   0  0  0  0  0  0  0  0  0  0  0  0
   10.1325   12.6206    5.8560 N   0  3  0  0  0  0  0  0  0  0  0  0
   10.8116   12.8452    4.5256 C   0  0  0  0  0  0  0  0  0  0  0  0
    9.2476   13.7695    6.2565 C   0  0  0  0  0  0  0  0  0  0  0  0
   20.6554   13.4897   10.0800 N   0  0  0  0  0  0  0  0  0  0  0  0
   21.1590   14.7166    9.8446 C   0  0  0  0  0  0  0  0  0  0  0  0
   20.5406   15.6285    9.0555 C   0  0  0  0  0  0  0  0  0  0  0  0
   19.2872   15.3535    8.4406 C   0  0  0  0  0  0  0  0  0  0  0  0
   17.5344   13.6364    8.1384 C   0  0  0  0  0  0  0  0  0  0  0  0
   17.0127   12.3643    8.3873 C   0  0  0  0  0  0  0  0  0  0  0  0
   18.9404   11.8825    9.7637 C   0  0  0  0  0  0  0  0  0  0  0  0
   17.1876   10.2368    9.4574 O   0  0  0  0  0  0  0  0  0  0  0  0
   17.8759    9.3992   10.4106 C   0  0  0  0  0  0  0  0  0  0  0  0
   21.1969   16.8848    8.9383 C   0  0  0  0  0  0  0  0  0  0  0  0
   21.7706   17.8615    8.8523 N   0  0  0  0  0  0  0  0  0  0  0  0
   18.6344   16.2678    7.5556 N   0  0  0  0  0  0  0  0  0  0  0  0
   19.2593   17.2436    6.7366 C   0  0  0  0  0  0  0  0  0  0  0  0
   19.3409   19.5321    5.9048 C   0  0  0  0  0  0  0  0  0  0  0  0
   21.1807   20.2549    4.5976 F   0  0  0  0  0  0  0  0  0  0  0  0
   22.6678   17.7552    4.6009 Cl  0  0  0  0  0  0  0  0  0  0  0  0
   17.5161    7.3965   11.1423 H   0  0  0  0  0  0  0  0  0  0  0  0
   17.0540    7.6639    9.4371 H   0  0  0  0  0  0  0  0  0  0  0  0
   16.0413    8.3228   10.7431 H   0  0  0  0  0  0  0  0  0  0  0  0
   20.9855   16.0285    6.1723 H   0  0  0  0  0  0  0  0  0  0  0  0
   17.7543   18.7398    7.1287 H   0  0  0  0  0  0  0  0  0  0  0  0
   13.2670   11.3797    8.2355 H   0  0  0  0  0  0  0  0  0  0  0  0
   12.5839   13.5640    6.2013 H   0  0  0  0  0  0  0  0  0  0  0  0
   10.6098   12.5039    7.9213 H   0  0  0  0  0  0  0  0  0  0  0  0
   11.0969   11.0826    6.9492 H   0  0  0  0  0  0  0  0  0  0  0  0
   15.6676   10.9536    7.7493 H   0  0  0  0  0  0  0  0  0  0  0  0
   10.0627   13.1564    3.7972 H   0  0  0  0  0  0  0  0  0  0  0  0
   11.2835   11.9109    4.2105 H   0  0  0  0  0  0  0  0  0  0  0  0
   11.5588   13.6305    4.6314 H   0  0  0  0  0  0  0  0  0  0  0  0
    8.7821   13.5337    7.2192 H   0  0  0  0  0  0  0  0  0  0  0  0
    8.4725   13.8921    5.4939 H   0  0  0  0  0  0  0  0  0  0  0  0
    9.8529   14.6709    6.3360 H   0  0  0  0  0  0  0  0  0  0  0  0
   22.1197   14.9671   10.3240 H   0  0  0  0  0  0  0  0  0  0  0  0
   16.9976   14.3127    7.4869 H   0  0  0  0  0  0  0  0  0  0  0  0
   19.4961   11.1880   10.3993 H   0  0  0  0  0  0  0  0  0  0  0  0
   18.9126    9.2018   10.0911 H   0  0  0  0  0  0  0  0  0  0  0  0
   17.8931    9.8715   11.4074 H   0  0  0  0  0  0  0  0  0  0  0  0
   17.6081   16.2313    7.5102 H   0  0  0  0  0  0  0  0  0  0  0  0
   18.8850   20.5175    5.8178 H   0  0  0  0  0  0  0  0  0  0  0  0
    9.5012   11.8300    5.7042 H   0  0  0  0  0  0  0  0  0  0  0  0
  1  3  2  0  0  0  0
  1 21  1  0  0  0  0
  1 22  1  0  0  0  0
  2 23  1  0  0  0  0
  2 24  2  0  0  0  0
  2 25  1  0  0  0  0
  3 18  1  0  0  0  0
  3 24  1  0  0  0  0
  4 26  1  0  0  0  0
  4 34  1  0  0  0  0
  4 35  1  0  0  0  0
  4 36  1  0  0  0  0
  5  6  2  0  0  0  0
  5 30  1  0  0  0  0
  5 37  1  0  0  0  0
  6  7  1  0  0  0  0
  6 33  1  0  0  0  0
  7 31  2  0  0  0  0
  7 32  1  0  0  0  0
  8 30  2  0  0  0  0
  8 31  1  0  0  0  0
  8 38  1  0  0  0  0
  9 10  1  0  0  0  0
  9 13  2  0  0  0  0
  9 14  1  0  0  0  0
 10 11  2  0  0  0  0
 10 39  1  0  0  0  0
 11 12  1  0  0  0  0
 11 40  1  0  0  0  0
 12 15  1  0  0  0  0
 12 41  1  0  0  0  0
 12 42  1  0  0  0  0
 14 23  1  0  0  0  0
 14 43  1  0  0  0  0
 15 16  1  0  0  0  0
 15 17  1  0  0  0  0
 15 57  1  0  0  0  0
 16 44  1  0  0  0  0
 16 45  1  0  0  0  0
 16 46  1  0  0  0  0
 17 47  1  0  0  0  0
 17 48  1  0  0  0  0
 17 49  1  0  0  0  0
 18 19  2  0  0  0  0
 19 20  1  0  0  0  0
 19 50  1  0  0  0  0
 20 21  2  0  0  0  0
 20 27  1  0  0  0  0
 21 29  1  0  0  0  0
 22 23  2  0  0  0  0
 22 51  1  0  0  0  0
 24 52  1  0  0  0  0
 25 26  1  0  0  0  0
 26 53  1  0  0  0  0
 26 54  1  0  0  0  0
 27 28  3  0  0  0  0
 29 30  1  0  0  0  0
 29 55  1  0  0  0  0
 31 56  1  0  0  0  0
M  CHG  1  15   1
M  END
$$$$
