9AA
 OpenBabel04161912113D

 33 34  0  0  1  0  0  0  0  0999 V2000
    1.1974    5.0008   83.5933 C   0  0  0  0  0  0  0  0  0  0  0  0
    1.5064    6.3612   83.7000 C   0  0  0  0  0  0  0  0  0  0  0  0
   -0.6652    6.8018   84.6063 C   0  0  0  0  0  0  0  0  0  0  0  0
   -0.0671    4.5473   83.9783 C   0  0  0  0  0  0  0  0  0  0  0  0
    0.5873    7.2651   84.2237 C   0  0  0  0  0  0  0  0  0  0  0  0
   -1.0020    5.4582   84.4787 C   0  0  0  0  0  0  0  0  0  0  0  0
   -0.9007    0.8398   84.7969 C   0  0  0  0  0  0  0  0  0  0  0  0
   -2.3057    1.6974   86.2608 C   0  0  0  0  0  0  0  0  0  0  0  0
   -0.3632    2.2531   85.1181 C   0  0  1  0  0  0  0  0  0  0  0  0
    2.0860    9.1051   84.2728 C   0  0  0  0  0  0  0  0  0  0  0  0
   -3.1745    5.8604   85.3051 C   0  0  0  0  0  0  0  0  0  0  0  0
   -0.4281    3.0956   83.8322 C   0  0  0  0  0  0  0  0  0  0  0  0
   -2.0038    0.5923   85.5547 N   0  0  0  0  0  0  0  0  0  0  0  0
   -1.2585    2.5842   86.1639 N   0  0  0  0  0  0  0  0  0  0  0  0
   -0.4034    0.0946   83.9936 O   0  0  0  0  0  0  0  0  0  0  0  0
    0.9166    2.2477   85.6778 O   0  0  0  0  0  0  0  0  0  0  0  0
    0.7704    8.6008   84.4233 O   0  0  0  0  0  0  0  0  0  0  0  0
   -2.2160    4.9342   84.8260 O   0  0  0  0  0  0  0  0  0  0  0  0
   -3.6999    1.9929   87.0751 S   0  0  0  0  0  0  0  0  0  0  0  0
    1.9287    4.2980   83.2024 H   0  0  0  0  0  0  0  0  0  0  0  0
    2.4837    6.7021   83.3823 H   0  0  0  0  0  0  0  0  0  0  0  0
   -1.3584    7.5166   85.0394 H   0  0  0  0  0  0  0  0  0  0  0  0
    2.0790   10.1824   84.4831 H   0  0  0  0  0  0  0  0  0  0  0  0
    2.4361    8.9607   83.2485 H   0  0  0  0  0  0  0  0  0  0  0  0
    2.7654    8.6224   84.9808 H   0  0  0  0  0  0  0  0  0  0  0  0
   -4.0838    5.3107   85.5602 H   0  0  0  0  0  0  0  0  0  0  0  0
   -3.4092    6.5893   84.5263 H   0  0  0  0  0  0  0  0  0  0  0  0
   -2.8045    6.3591   86.2040 H   0  0  0  0  0  0  0  0  0  0  0  0
    0.2894    2.6434   83.1383 H   0  0  0  0  0  0  0  0  0  0  0  0
   -1.4245    3.0349   83.3752 H   0  0  0  0  0  0  0  0  0  0  0  0
   -2.4932   -0.2953   85.5364 H   0  0  0  0  0  0  0  0  0  0  0  0
   -1.0536    3.3576   86.7799 H   0  0  0  0  0  0  0  0  0  0  0  0
    1.5324    2.0206   84.9715 H   0  0  0  0  0  0  0  0  0  0  0  0
  1  2  2  0  0  0  0
  1  4  1  0  0  0  0
  1 20  1  0  0  0  0
  2  5  1  0  0  0  0
  2 21  1  0  0  0  0
  3  5  2  0  0  0  0
  3  6  1  0  0  0  0
  3 22  1  0  0  0  0
  4  6  2  0  0  0  0
  4 12  1  0  0  0  0
  5 17  1  0  0  0  0
  6 18  1  0  0  0  0
  7  9  1  0  0  0  0
  7 13  1  0  0  0  0
  7 15  2  0  0  0  0
  8 13  1  0  0  0  0
  8 14  1  0  0  0  0
  8 19  2  0  0  0  0
  9 12  1  6  0  0  0
  9 14  1  0  0  0  0
  9 16  1  0  0  0  0
 10 17  1  0  0  0  0
 10 23  1  0  0  0  0
 10 24  1  0  0  0  0
 10 25  1  0  0  0  0
 11 18  1  0  0  0  0
 11 26  1  0  0  0  0
 11 27  1  0  0  0  0
 11 28  1  0  0  0  0
 12 29  1  0  0  0  0
 12 30  1  0  0  0  0
 13 31  1  0  0  0  0
 14 32  1  0  0  0  0
 16 33  1  0  0  0  0
M  END
$$$$
