9BH
 OpenBabel04161911383D

 72 75  0  0  1  0  0  0  0  0999 V2000
   10.0218   56.3222   97.5788 C   0  0  0  0  0  0  0  0  0  0  0  0
   10.1254   57.7858   98.0073 C   0  0  0  0  0  0  0  0  0  0  0  0
    9.9972   58.2181   96.5460 C   0  0  0  0  0  0  0  0  0  0  0  0
   10.1836   56.7544   96.1115 C   0  0  0  0  0  0  0  0  0  0  0  0
   11.6086   56.4533   95.5616 C   0  0  0  0  0  0  0  0  0  0  0  0
   12.5405   57.2116   95.7719 O   0  0  0  0  0  0  0  0  0  0  0  0
   11.6941   55.2833   94.9696 N   0  0  0  0  0  0  0  0  0  0  0  0
   12.7548   54.5628   94.2397 C   0  0  1  0  0  0  0  0  0  0  0  0
   12.8682   53.1066   94.7749 C   0  0  0  0  0  0  0  0  0  0  0  0
   13.3615   53.1801   96.2286 C   0  0  0  0  0  0  0  0  0  0  0  0
   13.8981   52.3237   93.9593 C   0  0  0  0  0  0  0  0  0  0  0  0
   11.5255   52.3578   94.7796 C   0  0  0  0  0  0  0  0  0  0  0  0
   12.3998   54.6680   92.7325 C   0  0  0  0  0  0  0  0  0  0  0  0
   11.2324   54.4805   92.3482 O   0  0  0  0  0  0  0  0  0  0  0  0
   13.4020   54.9991   91.8408 N   0  0  0  0  0  0  0  0  0  0  0  0
   14.8056   55.3675   92.0991 C   0  0  0  0  0  0  0  0  0  0  0  0
   15.2400   56.1434   90.8517 C   0  0  2  0  0  0  0  0  0  0  0  0
   14.9196   57.5353   90.9484 O   0  0  0  0  0  0  0  0  0  0  0  0
   14.4063   55.5071   89.7495 C   0  0  0  0  0  0  0  0  0  0  0  0
   13.0762   55.1720   90.4234 C   0  0  1  0  0  0  0  0  0  0  0  0
   12.5542   53.9160   89.7869 C   0  0  0  0  0  0  0  0  0  0  0  0
   12.9708   52.7965   90.1537 O   0  0  0  0  0  0  0  0  0  0  0  0
   11.7176   54.0516   88.7244 N   0  0  0  0  0  0  0  0  0  0  0  0
   11.2618   52.9169   87.9564 C   0  0  0  0  0  0  0  0  0  0  0  0
   12.1027   52.6747   86.7424 C   0  0  0  0  0  0  0  0  0  0  0  0
   12.9735   53.6419   86.2479 C   0  0  0  0  0  0  0  0  0  0  0  0
   13.7464   53.3962   85.1199 C   0  0  0  0  0  0  0  0  0  0  0  0
   12.0022   51.4578   86.0717 C   0  0  0  0  0  0  0  0  0  0  0  0
   12.7725   51.2194   84.9356 C   0  0  0  0  0  0  0  0  0  0  0  0
   13.6570   52.1892   84.4583 C   0  0  0  0  0  0  0  0  0  0  0  0
   14.4385   51.9601   83.2594 C   0  0  0  0  0  0  0  0  0  0  0  0
   16.0889   52.4497   83.0951 S   0  0  0  0  0  0  0  0  0  0  0  0
   16.1495   51.8139   81.5150 C   0  0  0  0  0  0  0  0  0  0  0  0
   15.0044   51.2802   81.1114 N   0  0  0  0  0  0  0  0  0  0  0  0
   14.0181   51.3573   82.0991 C   0  0  0  0  0  0  0  0  0  0  0  0
   12.6561   50.8025   81.8140 C   0  0  0  0  0  0  0  0  0  0  0  0
    9.0676   55.8479   97.8102 H   0  0  0  0  0  0  0  0  0  0  0  0
   10.8470   55.6935   97.9323 H   0  0  0  0  0  0  0  0  0  0  0  0
   11.0853   58.0464   98.4660 H   0  0  0  0  0  0  0  0  0  0  0  0
    9.3040   58.1197   98.6411 H   0  0  0  0  0  0  0  0  0  0  0  0
   10.8032   58.8763   96.2029 H   0  0  0  0  0  0  0  0  0  0  0  0
    9.0323   58.6530   96.2836 H   0  0  0  0  0  0  0  0  0  0  0  0
    9.3832   56.3887   95.4466 H   0  0  0  0  0  0  0  0  0  0  0  0
   10.8295   54.7428   95.0025 H   0  0  0  0  0  0  0  0  0  0  0  0
   13.7090   55.0503   94.4088 H   0  0  0  0  0  0  0  0  0  0  0  0
   13.4629   52.1741   96.6493 H   0  0  0  0  0  0  0  0  0  0  0  0
   12.6516   53.7455   96.8446 H   0  0  0  0  0  0  0  0  0  0  0  0
   14.3363   53.6807   96.2710 H   0  0  0  0  0  0  0  0  0  0  0  0
   13.5799   52.2450   92.9147 H   0  0  0  0  0  0  0  0  0  0  0  0
   14.0198   51.3123   94.3641 H   0  0  0  0  0  0  0  0  0  0  0  0
   14.8705   52.8312   93.9929 H   0  0  0  0  0  0  0  0  0  0  0  0
   10.7786   52.8993   95.3733 H   0  0  0  0  0  0  0  0  0  0  0  0
   11.6410   51.3629   95.2286 H   0  0  0  0  0  0  0  0  0  0  0  0
   11.1436   52.2404   93.7615 H   0  0  0  0  0  0  0  0  0  0  0  0
   15.4127   54.4572   92.1991 H   0  0  0  0  0  0  0  0  0  0  0  0
   14.9120   55.9804   92.9957 H   0  0  0  0  0  0  0  0  0  0  0  0
   16.3132   56.0423   90.6572 H   0  0  0  0  0  0  0  0  0  0  0  0
   15.3792   57.9216   91.7170 H   0  0  0  0  0  0  0  0  0  0  0  0
   14.9033   54.5942   89.3833 H   0  0  0  0  0  0  0  0  0  0  0  0
   14.2497   56.1867   88.9112 H   0  0  0  0  0  0  0  0  0  0  0  0
   12.3164   55.9465   90.2718 H   0  0  0  0  0  0  0  0  0  0  0  0
   11.4342   54.9862   88.4711 H   0  0  0  0  0  0  0  0  0  0  0  0
   10.2358   53.1051   87.6258 H   0  0  0  0  0  0  0  0  0  0  0  0
   11.2913   52.0083   88.5691 H   0  0  0  0  0  0  0  0  0  0  0  0
   13.0688   54.5927   86.7477 H   0  0  0  0  0  0  0  0  0  0  0  0
   14.4258   54.1585   84.7642 H   0  0  0  0  0  0  0  0  0  0  0  0
   11.3356   50.6876   86.4397 H   0  0  0  0  0  0  0  0  0  0  0  0
   12.6824   50.2592   84.4479 H   0  0  0  0  0  0  0  0  0  0  0  0
   17.0397   51.8355   80.8774 H   0  0  0  0  0  0  0  0  0  0  0  0
   12.6254   50.3861   80.8053 H   0  0  0  0  0  0  0  0  0  0  0  0
   11.8858   51.5815   81.8991 H   0  0  0  0  0  0  0  0  0  0  0  0
   12.4051   49.9947   82.5128 H   0  0  0  0  0  0  0  0  0  0  0  0
  1  2  1  0  0  0  0
  1  4  1  0  0  0  0
  1 37  1  0  0  0  0
  1 38  1  0  0  0  0
  2  3  1  0  0  0  0
  2 39  1  0  0  0  0
  2 40  1  0  0  0  0
  3  4  1  0  0  0  0
  3 41  1  0  0  0  0
  3 42  1  0  0  0  0
  4  5  1  0  0  0  0
  4 43  1  0  0  0  0
  5  6  2  0  0  0  0
  5  7  1  0  0  0  0
  7  8  1  0  0  0  0
  7 44  1  0  0  0  0
  8  9  1  0  0  0  0
  8 13  1  0  0  0  0
  8 45  1  1  0  0  0
  9 10  1  0  0  0  0
  9 11  1  0  0  0  0
  9 12  1  0  0  0  0
 10 46  1  0  0  0  0
 10 47  1  0  0  0  0
 10 48  1  0  0  0  0
 11 49  1  0  0  0  0
 11 50  1  0  0  0  0
 11 51  1  0  0  0  0
 12 52  1  0  0  0  0
 12 53  1  0  0  0  0
 12 54  1  0  0  0  0
 13 14  2  0  0  0  0
 13 15  1  0  0  0  0
 15 16  1  0  0  0  0
 15 20  1  0  0  0  0
 16 17  1  0  0  0  0
 16 55  1  0  0  0  0
 16 56  1  0  0  0  0
 17 18  1  0  0  0  0
 17 19  1  0  0  0  0
 17 57  1  6  0  0  0
 18 58  1  0  0  0  0
 19 20  1  0  0  0  0
 19 59  1  0  0  0  0
 19 60  1  0  0  0  0
 20 21  1  0  0  0  0
 20 61  1  6  0  0  0
 21 22  2  0  0  0  0
 21 23  1  0  0  0  0
 23 24  1  0  0  0  0
 23 62  1  0  0  0  0
 24 25  1  0  0  0  0
 24 63  1  0  0  0  0
 24 64  1  0  0  0  0
 25 26  2  0  0  0  0
 25 28  1  0  0  0  0
 26 27  1  0  0  0  0
 26 65  1  0  0  0  0
 27 30  2  0  0  0  0
 27 66  1  0  0  0  0
 28 29  2  0  0  0  0
 28 67  1  0  0  0  0
 29 30  1  0  0  0  0
 29 68  1  0  0  0  0
 30 31  1  0  0  0  0
 31 32  1  0  0  0  0
 31 35  2  0  0  0  0
 32 33  1  0  0  0  0
 33 34  2  0  0  0  0
 33 69  1  0  0  0  0
 34 35  1  0  0  0  0
 35 36  1  0  0  0  0
 36 70  1  0  0  0  0
 36 71  1  0  0  0  0
 36 72  1  0  0  0  0
M  END
$$$$
