9BT
 OpenBabel04161911383D

 66 68  0  0  1  0  0  0  0  0999 V2000
   12.5093   50.0043   81.0602 C   0  0  0  0  0  0  0  0  0  0  0  0
   13.8725   50.5543   81.3304 C   0  0  0  0  0  0  0  0  0  0  0  0
   14.8345   50.4728   80.3337 N   0  0  0  0  0  0  0  0  0  0  0  0
   15.9514   51.0201   80.7576 C   0  0  0  0  0  0  0  0  0  0  0  0
   15.9319   51.6596   82.3412 S   0  0  0  0  0  0  0  0  0  0  0  0
   14.2948   51.1639   82.4971 C   0  0  0  0  0  0  0  0  0  0  0  0
   13.5438   51.4089   83.7106 C   0  0  0  0  0  0  0  0  0  0  0  0
   12.6753   50.4188   84.2140 C   0  0  0  0  0  0  0  0  0  0  0  0
   11.8721   50.6746   85.3081 C   0  0  0  0  0  0  0  0  0  0  0  0
   13.6018   52.6512   84.3419 C   0  0  0  0  0  0  0  0  0  0  0  0
   12.8152   52.9026   85.4560 C   0  0  0  0  0  0  0  0  0  0  0  0
   11.9516   51.9089   85.9499 C   0  0  0  0  0  0  0  0  0  0  0  0
   11.0792   52.1220   87.1484 C   0  0  0  0  0  0  0  0  0  0  0  0
   11.5025   53.2431   87.9457 N   0  0  0  0  0  0  0  0  0  0  0  0
   12.3765   53.0716   88.9869 C   0  0  0  0  0  0  0  0  0  0  0  0
   12.8243   51.9684   89.3299 O   0  0  0  0  0  0  0  0  0  0  0  0
   12.8555   54.3806   89.6147 C   0  0  2  0  0  0  0  0  0  0  0  0
   14.1610   54.7691   88.9126 C   0  0  0  0  0  0  0  0  0  0  0  0
   14.9986   55.3740   90.0235 C   0  0  1  0  0  0  0  0  0  0  0  0
   14.6743   56.7597   90.1103 O   0  0  0  0  0  0  0  0  0  0  0  0
   14.5620   54.6112   91.2788 C   0  0  0  0  0  0  0  0  0  0  0  0
   13.1818   54.2164   91.0192 N   0  0  0  0  0  0  0  0  0  0  0  0
   12.1879   53.8753   91.9147 C   0  0  0  0  0  0  0  0  0  0  0  0
   11.0334   53.6510   91.5329 O   0  0  0  0  0  0  0  0  0  0  0  0
   12.5397   53.7602   93.4178 C   0  0  2  0  0  0  0  0  0  0  0  0
   12.7180   52.3059   93.9332 C   0  0  0  0  0  0  0  0  0  0  0  0
   11.4059   51.4931   93.8923 C   0  0  0  0  0  0  0  0  0  0  0  0
   13.1960   52.3760   95.3991 C   0  0  0  0  0  0  0  0  0  0  0  0
   13.7720   51.5570   93.1133 C   0  0  0  0  0  0  0  0  0  0  0  0
   11.4038   54.3615   94.1265 N   0  0  0  0  0  0  0  0  0  0  0  0
   11.4396   55.5960   94.7151 C   0  0  0  0  0  0  0  0  0  0  0  0
   12.4524   56.2721   94.8401 O   0  0  0  0  0  0  0  0  0  0  0  0
   10.0751   55.9880   95.2857 C   0  0  0  0  0  0  0  0  0  0  0  0
   10.1444   57.2011   96.0064 O   0  0  0  0  0  0  0  0  0  0  0  0
   11.8079   50.1564   81.8799 H   0  0  0  0  0  0  0  0  0  0  0  0
   12.5722   48.9277   80.8812 H   0  0  0  0  0  0  0  0  0  0  0  0
   12.0590   50.4999   80.1964 H   0  0  0  0  0  0  0  0  0  0  0  0
   16.8420   51.0686   80.1463 H   0  0  0  0  0  0  0  0  0  0  0  0
   12.5971   49.4451   83.7370 H   0  0  0  0  0  0  0  0  0  0  0  0
   11.1929   49.9027   85.6687 H   0  0  0  0  0  0  0  0  0  0  0  0
   14.2493   53.4373   83.9643 H   0  0  0  0  0  0  0  0  0  0  0  0
   12.8950   53.8704   85.9279 H   0  0  0  0  0  0  0  0  0  0  0  0
   11.0941   51.2133   87.7585 H   0  0  0  0  0  0  0  0  0  0  0  0
   10.0591   52.3184   86.8104 H   0  0  0  0  0  0  0  0  0  0  0  0
   11.2531   54.1691   87.6379 H   0  0  0  0  0  0  0  0  0  0  0  0
   12.0773   55.1459   89.4982 H   0  0  0  0  0  0  0  0  0  0  0  0
   13.9753   55.4677   88.0902 H   0  0  0  0  0  0  0  0  0  0  0  0
   14.6741   53.8898   88.5021 H   0  0  0  0  0  0  0  0  0  0  0  0
   16.0719   55.2837   89.8291 H   0  0  0  0  0  0  0  0  0  0  0  0
   15.2087   57.1506   90.8239 H   0  0  0  0  0  0  0  0  0  0  0  0
   14.6402   55.2270   92.1764 H   0  0  0  0  0  0  0  0  0  0  0  0
   15.1533   53.6974   91.3958 H   0  0  0  0  0  0  0  0  0  0  0  0
   13.4401   54.3407   93.6271 H   0  0  0  0  0  0  0  0  0  0  0  0
   11.5633   50.4762   94.2663 H   0  0  0  0  0  0  0  0  0  0  0  0
   11.0151   51.4143   92.8733 H   0  0  0  0  0  0  0  0  0  0  0  0
   10.6251   51.9347   94.5211 H   0  0  0  0  0  0  0  0  0  0  0  0
   14.1256   52.9510   95.4799 H   0  0  0  0  0  0  0  0  0  0  0  0
   13.3811   51.3759   95.8034 H   0  0  0  0  0  0  0  0  0  0  0  0
   12.4513   52.8585   96.0426 H   0  0  0  0  0  0  0  0  0  0  0  0
   13.4694   51.4680   92.0657 H   0  0  0  0  0  0  0  0  0  0  0  0
   13.9128   50.5414   93.4991 H   0  0  0  0  0  0  0  0  0  0  0  0
   14.7384   52.0680   93.1538 H   0  0  0  0  0  0  0  0  0  0  0  0
   10.5181   53.9128   94.0086 H   0  0  0  0  0  0  0  0  0  0  0  0
    9.7305   55.2020   95.9662 H   0  0  0  0  0  0  0  0  0  0  0  0
    9.3479   56.0856   94.4716 H   0  0  0  0  0  0  0  0  0  0  0  0
   10.9138   57.1019   96.5987 H   0  0  0  0  0  0  0  0  0  0  0  0
  1  2  1  0  0  0  0
  1 35  1  0  0  0  0
  1 36  1  0  0  0  0
  1 37  1  0  0  0  0
  2  3  1  0  0  0  0
  2  6  2  0  0  0  0
  3  4  2  0  0  0  0
  4  5  1  0  0  0  0
  4 38  1  0  0  0  0
  5  6  1  0  0  0  0
  6  7  1  0  0  0  0
  7  8  2  0  0  0  0
  7 10  1  0  0  0  0
  8  9  1  0  0  0  0
  8 39  1  0  0  0  0
  9 12  2  0  0  0  0
  9 40  1  0  0  0  0
 10 11  2  0  0  0  0
 10 41  1  0  0  0  0
 11 12  1  0  0  0  0
 11 42  1  0  0  0  0
 12 13  1  0  0  0  0
 13 14  1  0  0  0  0
 13 43  1  0  0  0  0
 13 44  1  0  0  0  0
 14 15  1  0  0  0  0
 14 45  1  0  0  0  0
 15 16  2  0  0  0  0
 15 17  1  0  0  0  0
 17 18  1  0  0  0  0
 17 22  1  0  0  0  0
 17 46  1  6  0  0  0
 18 19  1  0  0  0  0
 18 47  1  0  0  0  0
 18 48  1  0  0  0  0
 19 20  1  0  0  0  0
 19 21  1  0  0  0  0
 19 49  1  6  0  0  0
 20 50  1  0  0  0  0
 21 22  1  0  0  0  0
 21 51  1  0  0  0  0
 21 52  1  0  0  0  0
 22 23  1  0  0  0  0
 23 24  2  0  0  0  0
 23 25  1  0  0  0  0
 25 26  1  0  0  0  0
 25 30  1  0  0  0  0
 25 53  1  1  0  0  0
 26 27  1  0  0  0  0
 26 28  1  0  0  0  0
 26 29  1  0  0  0  0
 27 54  1  0  0  0  0
 27 55  1  0  0  0  0
 27 56  1  0  0  0  0
 28 57  1  0  0  0  0
 28 58  1  0  0  0  0
 28 59  1  0  0  0  0
 29 60  1  0  0  0  0
 29 61  1  0  0  0  0
 29 62  1  0  0  0  0
 30 31  1  0  0  0  0
 30 63  1  0  0  0  0
 31 32  2  0  0  0  0
 31 33  1  0  0  0  0
 33 34  1  0  0  0  0
 33 64  1  0  0  0  0
 33 65  1  0  0  0  0
 34 66  1  0  0  0  0
M  END
$$$$
