9BW
 OpenBabel04161911383D

 69 72  0  0  1  0  0  0  0  0999 V2000
    9.8950   56.5268   96.8289 C   0  0  0  0  0  0  0  0  0  0  0  0
    9.4550   57.3333   95.6402 C   0  0  0  0  0  0  0  0  0  0  0  0
    9.8501   55.8902   95.4641 C   0  0  0  0  0  0  0  0  0  0  0  0
   11.1444   55.5241   94.8012 C   0  0  0  0  0  0  0  0  0  0  0  0
   12.1212   56.2529   94.8638 O   0  0  0  0  0  0  0  0  0  0  0  0
   11.1193   54.3066   94.1861 N   0  0  0  0  0  0  0  0  0  0  0  0
   12.2721   53.7514   93.4648 C   0  0  1  0  0  0  0  0  0  0  0  0
   12.5335   52.2914   93.9553 C   0  0  0  0  0  0  0  0  0  0  0  0
   12.9739   52.3373   95.4388 C   0  0  0  0  0  0  0  0  0  0  0  0
   13.6568   51.6166   93.1528 C   0  0  0  0  0  0  0  0  0  0  0  0
   11.2752   51.4007   93.8661 C   0  0  0  0  0  0  0  0  0  0  0  0
   11.9308   53.8879   91.9571 C   0  0  0  0  0  0  0  0  0  0  0  0
   10.7606   53.7398   91.5765 O   0  0  0  0  0  0  0  0  0  0  0  0
   12.9335   54.1379   91.0421 N   0  0  0  0  0  0  0  0  0  0  0  0
   14.3295   54.4906   91.2719 C   0  0  0  0  0  0  0  0  0  0  0  0
   14.7327   55.3090   90.0380 C   0  0  2  0  0  0  0  0  0  0  0  0
   14.3960   56.6825   90.2186 O   0  0  0  0  0  0  0  0  0  0  0  0
   13.8799   54.7277   88.9237 C   0  0  0  0  0  0  0  0  0  0  0  0
   12.5852   54.3134   89.6381 C   0  0  1  0  0  0  0  0  0  0  0  0
   12.0981   53.0037   89.0101 C   0  0  0  0  0  0  0  0  0  0  0  0
   12.5515   51.9031   89.3160 O   0  0  0  0  0  0  0  0  0  0  0  0
   11.1972   53.2000   87.9855 N   0  0  0  0  0  0  0  0  0  0  0  0
   10.7528   52.1067   87.1636 C   0  0  0  0  0  0  0  0  0  0  0  0
   11.6485   51.8833   85.9722 C   0  0  0  0  0  0  0  0  0  0  0  0
   12.4722   52.8879   85.4402 C   0  0  0  0  0  0  0  0  0  0  0  0
   13.2767   52.6375   84.3281 C   0  0  0  0  0  0  0  0  0  0  0  0
   11.6325   50.6295   85.3552 C   0  0  0  0  0  0  0  0  0  0  0  0
   12.4486   50.3763   84.2562 C   0  0  0  0  0  0  0  0  0  0  0  0
   13.2683   51.3785   83.7206 C   0  0  0  0  0  0  0  0  0  0  0  0
   14.0363   51.1171   82.5045 C   0  0  0  0  0  0  0  0  0  0  0  0
   15.6923   51.5587   82.3810 S   0  0  0  0  0  0  0  0  0  0  0  0
   15.7245   50.9344   80.7890 C   0  0  0  0  0  0  0  0  0  0  0  0
   14.6021   50.4192   80.3419 N   0  0  0  0  0  0  0  0  0  0  0  0
   13.6243   50.5206   81.3196 C   0  0  0  0  0  0  0  0  0  0  0  0
   12.2551   50.0245   81.0089 C   0  0  0  0  0  0  0  0  0  0  0  0
    9.1487   56.2274   97.5526 H   0  0  0  0  0  0  0  0  0  0  0  0
   10.8690   56.7433   97.2569 H   0  0  0  0  0  0  0  0  0  0  0  0
   10.1264   58.0941   95.2595 H   0  0  0  0  0  0  0  0  0  0  0  0
    8.4058   57.5846   95.5638 H   0  0  0  0  0  0  0  0  0  0  0  0
    9.0344   55.1945   95.2901 H   0  0  0  0  0  0  0  0  0  0  0  0
   10.2205   53.8897   93.9773 H   0  0  0  0  0  0  0  0  0  0  0  0
   13.1439   54.3713   93.6897 H   0  0  0  0  0  0  0  0  0  0  0  0
   13.1692   51.3315   95.8258 H   0  0  0  0  0  0  0  0  0  0  0  0
   12.2034   52.7854   96.0761 H   0  0  0  0  0  0  0  0  0  0  0  0
   13.8903   52.9258   95.5604 H   0  0  0  0  0  0  0  0  0  0  0  0
   13.4004   51.5338   92.0919 H   0  0  0  0  0  0  0  0  0  0  0  0
   13.8423   50.5997   93.5169 H   0  0  0  0  0  0  0  0  0  0  0  0
   14.5952   52.1728   93.2409 H   0  0  0  0  0  0  0  0  0  0  0  0
   10.4444   51.8005   94.4574 H   0  0  0  0  0  0  0  0  0  0  0  0
   11.4786   50.3975   94.2589 H   0  0  0  0  0  0  0  0  0  0  0  0
   10.9340   51.2876   92.8325 H   0  0  0  0  0  0  0  0  0  0  0  0
   14.8952   53.5543   91.3017 H   0  0  0  0  0  0  0  0  0  0  0  0
   14.4595   55.0446   92.2023 H   0  0  0  0  0  0  0  0  0  0  0  0
   15.8059   55.2461   89.8321 H   0  0  0  0  0  0  0  0  0  0  0  0
   14.6707   57.1656   89.4200 H   0  0  0  0  0  0  0  0  0  0  0  0
   14.3877   53.8609   88.4820 H   0  0  0  0  0  0  0  0  0  0  0  0
   13.6749   55.4415   88.1179 H   0  0  0  0  0  0  0  0  0  0  0  0
   11.8191   55.0942   89.5615 H   0  0  0  0  0  0  0  0  0  0  0  0
   10.9073   54.1348   87.7363 H   0  0  0  0  0  0  0  0  0  0  0  0
    9.7408   52.3415   86.8190 H   0  0  0  0  0  0  0  0  0  0  0  0
   10.7141   51.1980   87.7754 H   0  0  0  0  0  0  0  0  0  0  0  0
   12.5034   53.8790   85.8833 H   0  0  0  0  0  0  0  0  0  0  0  0
   13.8932   53.4421   83.9336 H   0  0  0  0  0  0  0  0  0  0  0  0
   10.9910   49.8355   85.7323 H   0  0  0  0  0  0  0  0  0  0  0  0
   12.4328   49.3798   83.8233 H   0  0  0  0  0  0  0  0  0  0  0  0
   16.6233   50.9673   80.1882 H   0  0  0  0  0  0  0  0  0  0  0  0
   12.1883   49.6612   79.9808 H   0  0  0  0  0  0  0  0  0  0  0  0
   11.5204   50.8260   81.1403 H   0  0  0  0  0  0  0  0  0  0  0  0
   11.9829   49.1942   81.6670 H   0  0  0  0  0  0  0  0  0  0  0  0
  1  2  1  0  0  0  0
  1  3  1  0  0  0  0
  1 36  1  0  0  0  0
  1 37  1  0  0  0  0
  2  3  1  0  0  0  0
  2 38  1  0  0  0  0
  2 39  1  0  0  0  0
  3  4  1  0  0  0  0
  3 40  1  0  0  0  0
  4  5  2  0  0  0  0
  4  6  1  0  0  0  0
  6  7  1  0  0  0  0
  6 41  1  0  0  0  0
  7  8  1  0  0  0  0
  7 12  1  0  0  0  0
  7 42  1  1  0  0  0
  8  9  1  0  0  0  0
  8 10  1  0  0  0  0
  8 11  1  0  0  0  0
  9 43  1  0  0  0  0
  9 44  1  0  0  0  0
  9 45  1  0  0  0  0
 10 46  1  0  0  0  0
 10 47  1  0  0  0  0
 10 48  1  0  0  0  0
 11 49  1  0  0  0  0
 11 50  1  0  0  0  0
 11 51  1  0  0  0  0
 12 13  2  0  0  0  0
 12 14  1  0  0  0  0
 14 15  1  0  0  0  0
 14 19  1  0  0  0  0
 15 16  1  0  0  0  0
 15 52  1  0  0  0  0
 15 53  1  0  0  0  0
 16 17  1  0  0  0  0
 16 18  1  0  0  0  0
 16 54  1  6  0  0  0
 17 55  1  0  0  0  0
 18 19  1  0  0  0  0
 18 56  1  0  0  0  0
 18 57  1  0  0  0  0
 19 20  1  0  0  0  0
 19 58  1  6  0  0  0
 20 21  2  0  0  0  0
 20 22  1  0  0  0  0
 22 23  1  0  0  0  0
 22 59  1  0  0  0  0
 23 24  1  0  0  0  0
 23 60  1  0  0  0  0
 23 61  1  0  0  0  0
 24 25  2  0  0  0  0
 24 27  1  0  0  0  0
 25 26  1  0  0  0  0
 25 62  1  0  0  0  0
 26 29  2  0  0  0  0
 26 63  1  0  0  0  0
 27 28  2  0  0  0  0
 27 64  1  0  0  0  0
 28 29  1  0  0  0  0
 28 65  1  0  0  0  0
 29 30  1  0  0  0  0
 30 31  1  0  0  0  0
 30 34  2  0  0  0  0
 31 32  1  0  0  0  0
 32 33  2  0  0  0  0
 32 66  1  0  0  0  0
 33 34  1  0  0  0  0
 34 35  1  0  0  0  0
 35 67  1  0  0  0  0
 35 68  1  0  0  0  0
 35 69  1  0  0  0  0
M  END
$$$$
