9BZ
 OpenBabel04161910083D

 30 31  0  0  1  0  0  0  0  0999 V2000
    6.5606   -3.2929  -43.1880 O   0  0  0  0  0  0  0  0  0  0  0  0
    5.6839   -3.6674  -42.4242 C   0  0  0  0  0  0  0  0  0  0  0  0
    5.1828   -3.1558  -41.3405 O   0  0  0  0  0  0  0  0  0  0  0  0
    5.0788   -5.1037  -42.6607 C   0  0  1  0  0  0  0  0  0  0  0  0
    4.6557   -5.7792  -41.3851 N   0  3  2  0  0  0  0  0  0  0  0  0
    5.6801   -6.2133  -40.4093 C   0  0  1  0  0  0  0  0  0  0  0  0
    5.4979   -5.1911  -39.2630 C   0  0  0  0  0  0  0  0  0  0  0  0
    5.6337   -5.7794  -37.5816 S   0  0  0  0  0  0  0  0  0  0  0  0
    5.2338   -7.9602  -40.0830 S   0  0  0  0  0  0  0  0  0  0  0  0
    3.5773   -7.8813  -40.8137 C   0  0  0  0  0  0  0  0  0  0  0  0
    3.3564   -6.4411  -41.2343 C   0  0  2  0  0  0  0  0  0  0  0  0
    2.5693   -6.2023  -42.8258 S   0  0  0  0  0  0  0  0  0  0  0  0
    3.8217   -5.0198  -43.5073 C   0  0  0  0  0  0  0  0  0  0  0  0
    3.1733   -3.6387  -43.5325 C   0  0  0  0  0  0  0  0  0  0  0  0
    4.2371   -5.4758  -44.8946 C   0  0  0  0  0  0  0  0  0  0  0  0
    5.8655   -5.7138  -43.1042 H   0  0  0  0  0  0  0  0  0  0  0  0
    6.6828   -6.1846  -40.8541 H   0  0  0  0  0  0  0  0  0  0  0  0
    4.4713   -4.7950  -39.2774 H   0  0  0  0  0  0  0  0  0  0  0  0
    6.1326   -4.3211  -39.4794 H   0  0  0  0  0  0  0  0  0  0  0  0
    6.8869   -6.1810  -37.7217 H   0  0  0  0  0  0  0  0  0  0  0  0
    2.8363   -8.2059  -40.0684 H   0  0  0  0  0  0  0  0  0  0  0  0
    3.5465   -8.5694  -41.6646 H   0  0  0  0  0  0  0  0  0  0  0  0
    2.8190   -5.8998  -40.4424 H   0  0  0  0  0  0  0  0  0  0  0  0
    2.2846   -3.6116  -44.1745 H   0  0  0  0  0  0  0  0  0  0  0  0
    3.8752   -2.8982  -43.9373 H   0  0  0  0  0  0  0  0  0  0  0  0
    2.8822   -3.3089  -42.5269 H   0  0  0  0  0  0  0  0  0  0  0  0
    3.4017   -5.4732  -45.6061 H   0  0  0  0  0  0  0  0  0  0  0  0
    4.6692   -6.4832  -44.8644 H   0  0  0  0  0  0  0  0  0  0  0  0
    5.0200   -4.8024  -45.2808 H   0  0  0  0  0  0  0  0  0  0  0  0
    4.3891   -4.8674  -41.0223 H   0  0  0  0  0  0  0  0  0  0  0  0
  1  2  2  0  0  0  0
  2  3  1  0  0  0  0
  2  4  1  0  0  0  0
  4  5  1  0  0  0  0
  4 13  1  0  0  0  0
  4 16  1  6  0  0  0
  5  6  1  0  0  0  0
  5 11  1  0  0  0  0
  5 30  1  1  0  0  0
  6  7  1  0  0  0  0
  6  9  1  0  0  0  0
  6 17  1  6  0  0  0
  7  8  1  0  0  0  0
  7 18  1  0  0  0  0
  7 19  1  0  0  0  0
  8 20  1  0  0  0  0
  9 10  1  0  0  0  0
 10 11  1  0  0  0  0
 10 21  1  0  0  0  0
 10 22  1  0  0  0  0
 11 12  1  0  0  0  0
 11 23  1  1  0  0  0
 12 13  1  0  0  0  0
 13 14  1  0  0  0  0
 13 15  1  0  0  0  0
 14 24  1  0  0  0  0
 14 25  1  0  0  0  0
 14 26  1  0  0  0  0
 15 27  1  0  0  0  0
 15 28  1  0  0  0  0
 15 29  1  0  0  0  0
M  CHG  1   5   1
M  END
$$$$
