9EA
 OpenBabel04161912123D

102109  0  0  1  0  0  0  0  0999 V2000
  -28.5449    4.8155    3.5675 C   0  0  0  0  0  0  0  0  0  0  0  0
  -32.4934    2.8971   10.4570 C   0  0  0  0  0  0  0  0  0  0  0  0
  -28.0339    7.7806    1.4713 C   0  0  0  0  0  0  0  0  0  0  0  0
  -30.6055    8.2538    2.3942 C   0  0  0  0  0  0  0  0  0  0  0  0
  -31.1322    7.9150    7.3112 C   0  0  0  0  0  0  0  0  0  0  0  0
  -30.0446    7.9427    9.4635 C   0  0  0  0  0  0  0  0  0  0  0  0
  -35.7931   12.2864   11.8657 C   0  0  0  0  0  0  0  0  0  0  0  0
  -36.0201   10.0273   13.4085 C   0  0  0  0  0  0  0  0  0  0  0  0
  -32.5421    2.5112   11.7795 C   0  0  0  0  0  0  0  0  0  0  0  0
  -29.9389    7.0995    2.8032 C   0  0  0  0  0  0  0  0  0  0  0  0
  -32.3045    7.4533    7.9196 C   0  0  1  0  0  0  0  0  0  0  0  0
  -31.1947    7.5030   10.1058 C   0  0  2  0  0  0  0  0  0  0  0  0
  -33.5124    4.9622   11.1175 C   0  0  0  0  0  0  0  0  0  0  0  0
  -32.3364    7.2731    9.3080 C   0  0  2  0  0  0  0  0  0  0  0  0
  -34.8447   10.2399   12.7149 C   0  0  1  0  0  0  0  0  0  0  0  0
  -28.7111    8.9233    1.0800 C   0  0  0  0  0  0  0  0  0  0  0  0
  -29.9984    9.1572    1.5358 C   0  0  0  0  0  0  0  0  0  0  0  0
  -30.0136    8.1399    8.0955 C   0  0  0  0  0  0  0  0  0  0  0  0
  -27.9476    5.7302    2.7149 C   0  0  0  0  0  0  0  0  0  0  0  0
  -32.9908    4.1390   10.1235 C   0  0  0  0  0  0  0  0  0  0  0  0
  -37.0712   10.9349   13.3226 C   0  0  0  0  0  0  0  0  0  0  0  0
  -29.8366    5.0351    4.0381 C   0  0  0  0  0  0  0  0  0  0  0  0
  -34.7269   11.3805   11.9438 C   0  0  0  0  0  0  0  0  0  0  0  0
  -33.5132    4.4841   12.4117 C   0  0  0  0  0  0  0  0  0  0  0  0
  -28.6378    6.8681    2.3284 C   0  0  0  0  0  0  0  0  0  0  0  0
  -31.1797    7.4023   11.5449 C   0  0  2  0  0  0  0  0  0  0  0  0
  -33.5744    7.1098    7.3748 C   0  0  1  0  0  0  0  0  0  0  0  0
  -37.0050   12.0761   12.5278 C   0  0  1  0  0  0  0  0  0  0  0  0
  -30.5376    6.1756    3.6637 C   0  0  0  0  0  0  0  0  0  0  0  0
  -34.3833    6.7655    8.4412 C   0  0  1  0  0  0  0  0  0  0  0  0
  -31.7909    8.2556   12.4933 C   0  0  1  0  0  0  0  0  0  0  0  0
  -30.4669    6.4867   12.3028 C   0  0  2  0  0  0  0  0  0  0  0  0
  -35.8090    6.2947    8.3618 C   0  0  0  0  0  0  0  0  0  0  0  0
  -41.5814   15.0306   11.2642 C   0  0  0  0  0  0  0  0  0  0  0  0
  -39.4046   12.3141   12.5221 C   0  0  0  0  0  0  0  0  0  0  0  0
  -38.0352   13.9089   11.3157 C   0  0  0  0  0  0  0  0  0  0  0  0
  -40.5170   13.3401   12.6965 C   0  0  0  0  0  0  0  0  0  0  0  0
  -39.1023   14.9914   11.4579 C   0  0  0  0  0  0  0  0  0  0  0  0
  -29.5920    5.3469   11.9429 C   0  0  0  0  0  0  0  0  0  0  0  0
  -41.5455   16.5280   11.3121 C   0  0  0  0  0  0  0  0  0  0  0  0
  -30.2930    6.1129   14.7980 C   0  0  0  0  0  0  0  0  0  0  0  0
  -33.9690    7.2471    5.9452 C   0  0  0  0  0  0  0  0  0  0  0  0
  -34.0745    6.3240   10.8605 C   0  0  0  0  0  0  0  0  0  0  0  0
  -32.6642    9.4377   12.2308 C   0  0  0  0  0  0  0  0  0  0  0  0
  -33.8968    5.9668    5.1280 C   0  0  0  0  0  0  0  0  0  0  0  0
  -32.4676    5.5226    4.8746 C   0  0  0  0  0  0  0  0  0  0  0  0
  -33.0350    3.2733   12.7773 N   0  0  0  0  0  0  0  0  0  0  0  0
  -31.5399    7.8646   13.7489 N   0  0  0  0  0  0  0  0  0  0  0  0
  -33.6207    6.8465    9.5870 N   0  3  1  0  0  0  0  0  0  0  0  0
  -30.7523    6.7925   13.6081 N   0  3  1  0  0  0  0  0  0  0  0  0
  -38.0853   12.9747   12.4488 N   0  0  0  0  0  0  0  0  0  0  0  0
  -40.4290   14.4334   11.7302 N   0  0  0  0  0  0  0  0  0  0  0  0
  -36.6029    6.7536    9.2467 O   0  0  0  0  0  0  0  0  0  0  0  0
  -42.5823   14.4172   10.9054 O   0  0  0  0  0  0  0  0  0  0  0  0
  -36.0594    5.4931    7.4560 O   0  0  0  0  0  0  0  0  0  0  0  0
  -33.9134    9.2684   12.8923 O   0  0  0  0  0  0  0  0  0  0  0  0
  -31.8044    6.4881    4.0723 O   0  0  0  0  0  0  0  0  0  0  0  0
  -27.9976    3.9287    3.8649 H   0  0  0  0  0  0  0  0  0  0  0  0
  -32.0846    2.2427    9.7013 H   0  0  0  0  0  0  0  0  0  0  0  0
  -27.0299    7.5953    1.1099 H   0  0  0  0  0  0  0  0  0  0  0  0
  -31.6124    8.4455    2.7530 H   0  0  0  0  0  0  0  0  0  0  0  0
  -31.1026    8.0885    6.2411 H   0  0  0  0  0  0  0  0  0  0  0  0
  -29.1560    8.1381   10.0517 H   0  0  0  0  0  0  0  0  0  0  0  0
  -35.6540   13.1618   11.2463 H   0  0  0  0  0  0  0  0  0  0  0  0
  -36.1253    9.1429   14.0281 H   0  0  0  0  0  0  0  0  0  0  0  0
  -32.1587    1.5369   12.0584 H   0  0  0  0  0  0  0  0  0  0  0  0
  -28.2323    9.6336    0.4171 H   0  0  0  0  0  0  0  0  0  0  0  0
  -30.5376   10.0426    1.2270 H   0  0  0  0  0  0  0  0  0  0  0  0
  -29.0995    8.4773    7.6281 H   0  0  0  0  0  0  0  0  0  0  0  0
  -26.9410    5.5579    2.3501 H   0  0  0  0  0  0  0  0  0  0  0  0
  -32.9665    4.4656    9.0880 H   0  0  0  0  0  0  0  0  0  0  0  0
  -37.9562   10.7107   13.8984 H   0  0  0  0  0  0  0  0  0  0  0  0
  -30.2799    4.3005    4.6997 H   0  0  0  0  0  0  0  0  0  0  0  0
  -33.8219   11.5994   11.3890 H   0  0  0  0  0  0  0  0  0  0  0  0
  -33.9077    5.1112   13.2039 H   0  0  0  0  0  0  0  0  0  0  0  0
  -39.5826   11.7539   11.5975 H   0  0  0  0  0  0  0  0  0  0  0  0
  -39.4565   11.6362   13.3691 H   0  0  0  0  0  0  0  0  0  0  0  0
  -37.0688   14.4098   11.2763 H   0  0  0  0  0  0  0  0  0  0  0  0
  -38.2037   13.3557   10.3824 H   0  0  0  0  0  0  0  0  0  0  0  0
  -40.4498   13.7754   13.7060 H   0  0  0  0  0  0  0  0  0  0  0  0
  -41.4879   12.8500   12.5949 H   0  0  0  0  0  0  0  0  0  0  0  0
  -39.1466   15.5552   10.5172 H   0  0  0  0  0  0  0  0  0  0  0  0
  -38.8310   15.6714   12.2703 H   0  0  0  0  0  0  0  0  0  0  0  0
  -29.4895    5.2642   10.8585 H   0  0  0  0  0  0  0  0  0  0  0  0
  -30.0120    4.4110   12.3304 H   0  0  0  0  0  0  0  0  0  0  0  0
  -28.5952    5.4891   12.3804 H   0  0  0  0  0  0  0  0  0  0  0  0
  -42.4924   16.9225   10.9399 H   0  0  0  0  0  0  0  0  0  0  0  0
  -40.7319   16.9001   10.6941 H   0  0  0  0  0  0  0  0  0  0  0  0
  -41.4027   16.8506   12.3497 H   0  0  0  0  0  0  0  0  0  0  0  0
  -30.7013    6.6164   15.6792 H   0  0  0  0  0  0  0  0  0  0  0  0
  -29.2014    6.1476   14.8286 H   0  0  0  0  0  0  0  0  0  0  0  0
  -30.6375    5.0777   14.7713 H   0  0  0  0  0  0  0  0  0  0  0  0
  -33.3183    7.9953    5.4791 H   0  0  0  0  0  0  0  0  0  0  0  0
  -34.9963    7.6205    5.9098 H   0  0  0  0  0  0  0  0  0  0  0  0
  -33.7605    7.0137   11.6360 H   0  0  0  0  0  0  0  0  0  0  0  0
  -35.1541    6.2833   10.8673 H   0  0  0  0  0  0  0  0  0  0  0  0
  -32.8271    9.5427   11.1529 H   0  0  0  0  0  0  0  0  0  0  0  0
  -32.1599   10.3319   12.6154 H   0  0  0  0  0  0  0  0  0  0  0  0
  -34.3887    6.1488    4.1634 H   0  0  0  0  0  0  0  0  0  0  0  0
  -34.4243    5.1652    5.6477 H   0  0  0  0  0  0  0  0  0  0  0  0
  -32.4849    4.5653    4.3452 H   0  0  0  0  0  0  0  0  0  0  0  0
  -31.9437    5.4146    5.8265 H   0  0  0  0  0  0  0  0  0  0  0  0
  1 19  2  0  0  0  0
  1 22  1  0  0  0  0
  1 58  1  0  0  0  0
  2  9  2  0  0  0  0
  2 20  1  0  0  0  0
  2 59  1  0  0  0  0
  3 16  2  0  0  0  0
  3 25  1  0  0  0  0
  3 60  1  0  0  0  0
  4 10  1  0  0  0  0
  4 17  2  0  0  0  0
  4 61  1  0  0  0  0
  5 18  1  0  0  0  0
  5 62  1  0  0  0  0
  6 18  1  0  0  0  0
  6 63  1  0  0  0  0
  7 23  1  0  0  0  0
  7 28  1  0  0  0  0
  7 64  1  0  0  0  0
  8 15  1  0  0  0  0
  8 21  1  0  0  0  0
  8 65  1  0  0  0  0
  9 47  1  0  0  0  0
  9 66  1  0  0  0  0
 10 25  2  0  0  0  0
 10 29  1  0  0  0  0
 11  5  1  1  0  0  0
 11 27  1  0  0  0  0
 12  6  1  1  0  0  0
 12 14  1  0  0  0  0
 13 20  2  0  0  0  0
 13 24  1  0  0  0  0
 13 43  1  0  0  0  0
 14 11  1  6  0  0  0
 14 49  1  0  0  0  0
 15 23  1  0  0  0  0
 15 56  1  1  0  0  0
 16 17  1  0  0  0  0
 16 67  1  0  0  0  0
 17 68  1  0  0  0  0
 18 69  1  0  0  0  0
 19 25  1  0  0  0  0
 19 70  1  0  0  0  0
 20 71  1  0  0  0  0
 21 28  1  0  0  0  0
 21 72  1  0  0  0  0
 22 29  2  0  0  0  0
 22 73  1  0  0  0  0
 23 74  1  0  0  0  0
 24 47  2  0  0  0  0
 24 75  1  0  0  0  0
 26 12  1  6  0  0  0
 26 31  1  0  0  0  0
 26 32  1  0  0  0  0
 27 30  1  0  0  0  0
 27 42  1  1  0  0  0
 28 51  1  1  0  0  0
 29 57  1  0  0  0  0
 30 33  1  6  0  0  0
 30 49  1  0  0  0  0
 31 44  1  6  0  0  0
 31 48  1  0  0  0  0
 32 39  1  6  0  0  0
 32 50  1  0  0  0  0
 33 53  2  0  0  0  0
 33 55  1  0  0  0  0
 34 40  1  0  0  0  0
 34 52  1  0  0  0  0
 34 54  2  0  0  0  0
 35 37  1  0  0  0  0
 35 51  1  0  0  0  0
 35 76  1  0  0  0  0
 35 77  1  0  0  0  0
 36 38  1  0  0  0  0
 36 51  1  0  0  0  0
 36 78  1  0  0  0  0
 36 79  1  0  0  0  0
 37 52  1  0  0  0  0
 37 80  1  0  0  0  0
 37 81  1  0  0  0  0
 38 52  1  0  0  0  0
 38 82  1  0  0  0  0
 38 83  1  0  0  0  0
 39 84  1  0  0  0  0
 39 85  1  0  0  0  0
 39 86  1  0  0  0  0
 40 87  1  0  0  0  0
 40 88  1  0  0  0  0
 40 89  1  0  0  0  0
 41 90  1  0  0  0  0
 41 91  1  0  0  0  0
 41 92  1  0  0  0  0
 42 45  1  0  0  0  0
 42 93  1  0  0  0  0
 42 94  1  0  0  0  0
 43 95  1  0  0  0  0
 43 96  1  0  0  0  0
 44 56  1  0  0  0  0
 44 97  1  0  0  0  0
 44 98  1  0  0  0  0
 45 46  1  0  0  0  0
 45 99  1  0  0  0  0
 45100  1  0  0  0  0
 46 57  1  0  0  0  0
 46101  1  0  0  0  0
 46102  1  0  0  0  0
 48 50  1  0  0  0  0
 49 43  1  6  0  0  0
 50 41  1  1  0  0  0
M  CHG  2  49   1  50   1
M  END
$$$$
