9FK
 OpenBabel04161910163D

 36 39  0  0  0  0  0  0  0  0999 V2000
    8.9998  -24.6838   59.4556 O   0  0  0  0  0  0  0  0  0  0  0  0
    8.9250  -26.1009   59.7351 S   0  0  0  0  0  0  0  0  0  0  0  0
    8.5323  -26.6390   61.0031 O   0  0  0  0  0  0  0  0  0  0  0  0
    7.9280  -26.7921   58.5953 N   0  0  0  0  0  0  0  0  0  0  0  0
   10.4969  -26.8065   59.4061 C   0  0  0  0  0  0  0  0  0  0  0  0
   11.8412  -25.7962   59.4178 S   0  0  0  0  0  0  0  0  0  0  0  0
   12.9088  -27.1199   59.1583 C   0  0  0  0  0  0  0  0  0  0  0  0
   12.2382  -28.3130   59.0182 C   0  0  0  0  0  0  0  0  0  0  0  0
   10.8329  -28.1206   59.1555 C   0  0  0  0  0  0  0  0  0  0  0  0
   14.3650  -26.8583   59.1622 C   0  0  0  0  0  0  0  0  0  0  0  0
   15.4467  -27.6917   58.9883 C   0  0  0  0  0  0  0  0  0  0  0  0
   16.5371  -26.8485   59.1378 N   0  3  0  0  0  0  0  0  0  0  0  0
   16.1126  -25.5872   59.3745 N   0  0  0  0  0  0  0  0  0  0  0  0
   14.7999  -25.5904   59.4078 N   0  0  0  0  0  0  0  0  0  0  0  0
   17.9296  -27.0768   59.1162 C   0  0  0  0  0  0  0  0  0  0  0  0
   18.7135  -26.1180   58.4363 C   0  0  0  0  0  0  0  0  0  0  0  0
   20.1023  -26.2120   58.4237 C   0  0  0  0  0  0  0  0  0  0  0  0
   20.7346  -27.2357   59.1049 C   0  0  0  0  0  0  0  0  0  0  0  0
   19.9869  -28.1868   59.8060 C   0  0  0  0  0  0  0  0  0  0  0  0
   18.5573  -28.1344   59.8202 C   0  0  0  0  0  0  0  0  0  0  0  0
   20.6693  -29.1905   60.5050 C   0  0  0  0  0  0  0  0  0  0  0  0
   19.9617  -30.1405   61.2302 C   0  0  0  0  0  0  0  0  0  0  0  0
   18.5762  -30.0924   61.2734 C   0  0  0  0  0  0  0  0  0  0  0  0
   17.8748  -29.0952   60.5951 C   0  0  0  0  0  0  0  0  0  0  0  0
    8.0950  -26.6362   57.6090 H   0  0  0  0  0  0  0  0  0  0  0  0
    7.2296  -27.4373   58.9493 H   0  0  0  0  0  0  0  0  0  0  0  0
   12.6903  -29.2857   58.8705 H   0  0  0  0  0  0  0  0  0  0  0  0
   10.0772  -28.8928   59.1279 H   0  0  0  0  0  0  0  0  0  0  0  0
   15.5316  -28.7426   58.7416 H   0  0  0  0  0  0  0  0  0  0  0  0
   18.2436  -25.3019   57.8907 H   0  0  0  0  0  0  0  0  0  0  0  0
   20.6908  -25.4751   57.8822 H   0  0  0  0  0  0  0  0  0  0  0  0
   21.8289  -27.2834   59.0966 H   0  0  0  0  0  0  0  0  0  0  0  0
   21.7562  -29.2426   60.4786 H   0  0  0  0  0  0  0  0  0  0  0  0
   20.4990  -30.9199   61.7598 H   0  0  0  0  0  0  0  0  0  0  0  0
   18.0269  -30.8437   61.8331 H   0  0  0  0  0  0  0  0  0  0  0  0
   16.7945  -29.0845   60.6970 H   0  0  0  0  0  0  0  0  0  0  0  0
  1  2  2  0  0  0  0
  2  3  2  0  0  0  0
  2  4  1  0  0  0  0
  2  5  1  0  0  0  0
  4 25  1  0  0  0  0
  4 26  1  0  0  0  0
  5  6  1  0  0  0  0
  5  9  2  0  0  0  0
  6  7  1  0  0  0  0
  7  8  2  0  0  0  0
  7 10  1  0  0  0  0
  8  9  1  0  0  0  0
  8 27  1  0  0  0  0
  9 28  1  0  0  0  0
 10 11  1  0  0  0  0
 10 14  2  0  0  0  0
 11 12  2  0  0  0  0
 11 29  1  0  0  0  0
 12 13  1  0  0  0  0
 12 15  1  0  0  0  0
 13 14  1  0  0  0  0
 15 16  2  0  0  0  0
 15 20  1  0  0  0  0
 16 17  1  0  0  0  0
 16 30  1  0  0  0  0
 17 18  2  0  0  0  0
 17 31  1  0  0  0  0
 18 19  1  0  0  0  0
 18 32  1  0  0  0  0
 19 20  2  0  0  0  0
 19 21  1  0  0  0  0
 20 24  1  0  0  0  0
 21 22  2  0  0  0  0
 21 33  1  0  0  0  0
 22 23  1  0  0  0  0
 22 34  1  0  0  0  0
 23 24  2  0  0  0  0
 23 35  1  0  0  0  0
 24 36  1  0  0  0  0
M  CHG  1  12   1
M  END
$$$$
