9FS
 OpenBabel04161912123D

 54 58  0  0  1  0  0  0  0  0999 V2000
    8.3237   10.7903   32.8173 C   0  0  0  0  0  0  0  0  0  0  0  0
    5.6556   13.8058   31.0343 C   0  0  0  0  0  0  0  0  0  0  0  0
    6.7521   13.0984   31.4705 C   0  0  0  0  0  0  0  0  0  0  0  0
    6.9573    8.6285   33.7265 C   0  0  0  0  0  0  0  0  0  0  0  0
    6.2279   11.8946   32.0135 C   0  0  0  0  0  0  0  0  0  0  0  0
    6.9504   10.7963   32.6508 C   0  0  0  0  0  0  0  0  0  0  0  0
    6.2631    9.6971   33.1281 C   0  0  0  0  0  0  0  0  0  0  0  0
    8.3303    8.6927   33.7769 C   0  0  0  0  0  0  0  0  0  0  0  0
    2.6353   12.7988   29.7428 C   0  0  0  0  0  0  0  0  0  0  0  0
    2.2715   12.7362   32.2145 C   0  0  0  0  0  0  0  0  0  0  0  0
    3.1239   13.3193   31.0901 C   0  0  0  0  0  0  0  0  0  0  0  0
    4.5538   13.0210   31.2985 N   0  3  0  0  0  0  0  0  0  0  0  0
    4.8950   11.8591   31.8718 N   0  0  0  0  0  0  0  0  0  0  0  0
    9.0291    9.7687   33.3594 N   0  0  0  0  0  0  0  0  0  0  0  0
    9.1024    7.6263   34.2535 N   0  0  0  0  0  0  0  0  0  0  0  0
    6.1393    7.4877   34.2668 C   0  0  0  0  0  0  0  0  0  0  0  0
    4.7957    7.6397   34.0871 F   0  0  0  0  0  0  0  0  0  0  0  0
    6.4441    6.2929   33.6775 F   0  0  0  0  0  0  0  0  0  0  0  0
    6.3117    7.3047   35.6058 F   0  0  0  0  0  0  0  0  0  0  0  0
    5.5869   15.1639   30.3936 C   0  0  1  0  0  0  0  0  0  0  0  0
    6.4313   16.3288   30.8860 C   0  0  1  0  0  0  0  0  0  0  0  0
    6.6873   15.7530   29.5296 C   0  0  2  0  0  0  0  0  0  0  0  0
    6.2988   16.7856   28.5032 C   0  0  0  0  0  0  0  0  0  0  0  0
    6.1649   18.0734   29.2804 N   0  3  2  0  0  0  0  0  0  0  0  0
    5.8860   17.7152   30.7165 C   0  0  0  0  0  0  0  0  0  0  0  0
    5.2189   19.1114   28.7658 C   0  0  0  0  0  0  0  0  0  0  0  0
    4.3042   18.7751   27.5817 C   0  0  0  0  0  0  0  0  0  0  0  0
    5.2913   19.2960   26.6441 O   0  0  0  0  0  0  0  0  0  0  0  0
    5.9003   20.0555   27.7294 C   0  0  0  0  0  0  0  0  0  0  0  0
    8.9114   11.6473   32.4832 H   0  0  0  0  0  0  0  0  0  0  0  0
    7.7910   13.3924   31.4316 H   0  0  0  0  0  0  0  0  0  0  0  0
    5.1776    9.6433   33.0454 H   0  0  0  0  0  0  0  0  0  0  0  0
    1.5671   13.0181   29.5920 H   0  0  0  0  0  0  0  0  0  0  0  0
    2.7746   11.7154   29.6798 H   0  0  0  0  0  0  0  0  0  0  0  0
    3.1973   13.2719   28.9332 H   0  0  0  0  0  0  0  0  0  0  0  0
    2.6152   13.1255   33.1776 H   0  0  0  0  0  0  0  0  0  0  0  0
    2.3588   11.6438   32.2289 H   0  0  0  0  0  0  0  0  0  0  0  0
    1.2118   12.9924   32.0908 H   0  0  0  0  0  0  0  0  0  0  0  0
    2.9714   14.4077   31.1058 H   0  0  0  0  0  0  0  0  0  0  0  0
   10.1124    7.7316   34.2616 H   0  0  0  0  0  0  0  0  0  0  0  0
    8.6505    6.7730   34.5241 H   0  0  0  0  0  0  0  0  0  0  0  0
    4.5760   15.3826   30.1079 H   0  0  0  0  0  0  0  0  0  0  0  0
    7.1159   16.2285   31.7141 H   0  0  0  0  0  0  0  0  0  0  0  0
    7.5715   15.1894   29.2776 H   0  0  0  0  0  0  0  0  0  0  0  0
    5.3542   16.5030   28.0461 H   0  0  0  0  0  0  0  0  0  0  0  0
    7.0678   16.9318   27.7425 H   0  0  0  0  0  0  0  0  0  0  0  0
    6.3990   18.4565   31.3358 H   0  0  0  0  0  0  0  0  0  0  0  0
    4.8061   17.7492   30.8979 H   0  0  0  0  0  0  0  0  0  0  0  0
    4.7423   19.6458   29.5925 H   0  0  0  0  0  0  0  0  0  0  0  0
    3.3638   19.3311   27.5369 H   0  0  0  0  0  0  0  0  0  0  0  0
    4.0794   17.7261   27.4148 H   0  0  0  0  0  0  0  0  0  0  0  0
    6.9962   20.0333   27.6852 H   0  0  0  0  0  0  0  0  0  0  0  0
    5.5657   21.0998   27.7357 H   0  0  0  0  0  0  0  0  0  0  0  0
    7.1022   18.4787   29.2737 H   0  0  0  0  0  0  0  0  0  0  0  0
  1  6  2  0  0  0  0
  1 14  1  0  0  0  0
  1 30  1  0  0  0  0
  2  3  1  0  0  0  0
  2 12  2  0  0  0  0
  2 20  1  0  0  0  0
  3  5  2  0  0  0  0
  3 31  1  0  0  0  0
  4  7  2  0  0  0  0
  4  8  1  0  0  0  0
  4 16  1  0  0  0  0
  5  6  1  0  0  0  0
  5 13  1  0  0  0  0
  6  7  1  0  0  0  0
  7 32  1  0  0  0  0
  8 14  2  0  0  0  0
  8 15  1  0  0  0  0
  9 11  1  0  0  0  0
  9 33  1  0  0  0  0
  9 34  1  0  0  0  0
  9 35  1  0  0  0  0
 10 11  1  0  0  0  0
 10 36  1  0  0  0  0
 10 37  1  0  0  0  0
 10 38  1  0  0  0  0
 11 12  1  0  0  0  0
 11 39  1  0  0  0  0
 12 13  1  0  0  0  0
 15 40  1  0  0  0  0
 15 41  1  0  0  0  0
 16 17  1  0  0  0  0
 16 18  1  0  0  0  0
 16 19  1  0  0  0  0
 20 21  1  0  0  0  0
 20 22  1  0  0  0  0
 20 42  1  6  0  0  0
 21 22  1  0  0  0  0
 21 25  1  0  0  0  0
 21 43  1  1  0  0  0
 22 23  1  0  0  0  0
 22 44  1  6  0  0  0
 23 24  1  0  0  0  0
 23 45  1  0  0  0  0
 23 46  1  0  0  0  0
 24 25  1  0  0  0  0
 24 26  1  0  0  0  0
 24 54  1  6  0  0  0
 25 47  1  0  0  0  0
 25 48  1  0  0  0  0
 26 27  1  0  0  0  0
 26 29  1  0  0  0  0
 26 49  1  0  0  0  0
 27 28  1  0  0  0  0
 27 50  1  0  0  0  0
 27 51  1  0  0  0  0
 28 29  1  0  0  0  0
 29 52  1  0  0  0  0
 29 53  1  0  0  0  0
M  CHG  2  12   1  24   1
M  END
$$$$
