9HG
 OpenBabel04161912133D

 63 66  0  0  1  0  0  0  0  0999 V2000
   20.9027  -14.7446   -2.8945 C   0  0  0  0  0  0  0  0  0  0  0  0
   21.0653  -13.4980   -2.2446 C   0  0  0  0  0  0  0  0  0  0  0  0
   21.8352  -12.5621   -2.9139 C   0  0  0  0  0  0  0  0  0  0  0  0
   24.2140  -17.3254   -7.1423 C   0  0  0  0  0  0  0  0  0  0  0  0
   22.7756  -15.5734   -7.9732 C   0  0  0  0  0  0  0  0  0  0  0  0
   22.3896  -12.8110   -4.0948 N   0  0  0  0  0  0  0  0  0  0  0  0
   23.3955  -16.8956   -8.3462 C   0  0  0  0  0  0  0  0  0  0  0  0
   21.4606  -14.9705   -4.0696 N   0  0  0  0  0  0  0  0  0  0  0  0
   23.5590  -13.2725   -6.5650 C   0  0  0  0  0  0  0  0  0  0  0  0
   22.1949  -14.0223   -4.6592 C   0  0  0  0  0  0  0  0  0  0  0  0
   18.6212  -17.7287   -1.0261 C   0  0  0  0  0  0  0  0  0  0  0  0
   19.5655  -13.0039    1.6305 C   0  0  0  0  0  0  0  0  0  0  0  0
   23.9937   -6.2078   -3.7337 C   0  0  0  0  0  0  0  0  0  0  0  0
   20.1468  -15.7272   -2.2767 C   0  0  0  0  0  0  0  0  0  0  0  0
   20.4640  -13.2813   -1.0000 C   0  0  0  0  0  0  0  0  0  0  0  0
   23.7386  -16.4972   -5.9581 C   0  0  0  0  0  0  0  0  0  0  0  0
   22.6065  -15.6014   -6.4553 C   0  0  0  0  0  0  0  0  0  0  0  0
   23.7915   -9.6272   -2.0961 C   0  0  0  0  0  0  0  0  0  0  0  0
   21.8549   -9.3094   -3.6175 C   0  0  0  0  0  0  0  0  0  0  0  0
   24.4555   -8.4156   -2.7141 C   0  0  0  0  0  0  0  0  0  0  0  0
   22.5541   -8.1311   -4.2336 C   0  0  0  0  0  0  0  0  0  0  0  0
   19.5368  -15.5215   -1.0333 C   0  0  0  0  0  0  0  0  0  0  0  0
   19.7140  -14.2733   -0.3860 C   0  0  0  0  0  0  0  0  0  0  0  0
   22.8498  -10.3224   -3.0778 C   0  0  2  0  0  0  0  0  0  0  0  0
   22.7509  -14.2659   -5.8860 N   0  0  0  0  0  0  0  0  0  0  0  0
   22.0834  -11.3016   -2.3461 N   0  0  0  0  0  0  0  0  0  0  0  0
   23.3933   -7.4643   -3.1837 N   0  3  2  0  0  0  0  0  0  0  0  0
   18.7739  -16.4627   -0.3814 O   0  0  0  0  0  0  0  0  0  0  0  0
   19.1063  -14.0919    0.8297 O   0  0  0  0  0  0  0  0  0  0  0  0
   25.2813  -17.1486   -7.3210 H   0  0  0  0  0  0  0  0  0  0  0  0
   24.0738  -18.3928   -6.9445 H   0  0  0  0  0  0  0  0  0  0  0  0
   21.8219  -15.4010   -8.4801 H   0  0  0  0  0  0  0  0  0  0  0  0
   23.4569  -14.7822   -8.2857 H   0  0  0  0  0  0  0  0  0  0  0  0
   22.6097  -17.6254   -8.5558 H   0  0  0  0  0  0  0  0  0  0  0  0
   24.0263  -16.7948   -9.2355 H   0  0  0  0  0  0  0  0  0  0  0  0
   23.6072  -12.3341   -6.0201 H   0  0  0  0  0  0  0  0  0  0  0  0
   23.1218  -13.0329   -7.5471 H   0  0  0  0  0  0  0  0  0  0  0  0
   24.5896  -13.6242   -6.7316 H   0  0  0  0  0  0  0  0  0  0  0  0
   17.9930  -18.3696   -0.3972 H   0  0  0  0  0  0  0  0  0  0  0  0
   19.5925  -18.2207   -1.1513 H   0  0  0  0  0  0  0  0  0  0  0  0
   18.1265  -17.6151   -1.9974 H   0  0  0  0  0  0  0  0  0  0  0  0
   18.9859  -12.9944    2.5590 H   0  0  0  0  0  0  0  0  0  0  0  0
   19.4061  -12.0422    1.1311 H   0  0  0  0  0  0  0  0  0  0  0  0
   20.6246  -13.1262    1.8832 H   0  0  0  0  0  0  0  0  0  0  0  0
   24.5814   -5.7362   -2.9468 H   0  0  0  0  0  0  0  0  0  0  0  0
   23.1788   -5.5581   -4.0551 H   0  0  0  0  0  0  0  0  0  0  0  0
   24.6227   -6.4914   -4.5785 H   0  0  0  0  0  0  0  0  0  0  0  0
   20.0223  -16.6919   -2.7723 H   0  0  0  0  0  0  0  0  0  0  0  0
   20.5864  -12.3178   -0.5213 H   0  0  0  0  0  0  0  0  0  0  0  0
   24.5627  -15.8858   -5.5731 H   0  0  0  0  0  0  0  0  0  0  0  0
   23.3934  -17.1441   -5.1440 H   0  0  0  0  0  0  0  0  0  0  0  0
   21.6257  -16.0401   -6.2153 H   0  0  0  0  0  0  0  0  0  0  0  0
   23.2139   -9.3117   -1.2189 H   0  0  0  0  0  0  0  0  0  0  0  0
   24.5691  -10.3173   -1.7654 H   0  0  0  0  0  0  0  0  0  0  0  0
   21.2195   -9.7788   -4.3677 H   0  0  0  0  0  0  0  0  0  0  0  0
   21.2213   -8.9730   -2.7877 H   0  0  0  0  0  0  0  0  0  0  0  0
   25.0477   -8.6874   -3.5929 H   0  0  0  0  0  0  0  0  0  0  0  0
   25.0794   -7.8865   -1.9909 H   0  0  0  0  0  0  0  0  0  0  0  0
   21.8402   -7.3952   -4.6047 H   0  0  0  0  0  0  0  0  0  0  0  0
   23.2325   -8.4389   -5.0339 H   0  0  0  0  0  0  0  0  0  0  0  0
   23.4422  -10.7656   -3.8946 H   0  0  0  0  0  0  0  0  0  0  0  0
   21.6597  -11.0371   -1.4691 H   0  0  0  0  0  0  0  0  0  0  0  0
   22.7919   -7.2118   -2.3792 H   0  0  0  0  0  0  0  0  0  0  0  0
  1  2  2  0  0  0  0
  1  8  1  0  0  0  0
  1 14  1  0  0  0  0
  2  3  1  0  0  0  0
  2 15  1  0  0  0  0
  3  6  2  0  0  0  0
  3 26  1  0  0  0  0
  4  7  1  0  0  0  0
  4 16  1  0  0  0  0
  4 30  1  0  0  0  0
  4 31  1  0  0  0  0
  5  7  1  0  0  0  0
  5 17  1  0  0  0  0
  5 32  1  0  0  0  0
  5 33  1  0  0  0  0
  6 10  1  0  0  0  0
  7 34  1  0  0  0  0
  7 35  1  0  0  0  0
  8 10  2  0  0  0  0
  9 25  1  0  0  0  0
  9 36  1  0  0  0  0
  9 37  1  0  0  0  0
  9 38  1  0  0  0  0
 10 25  1  0  0  0  0
 11 28  1  0  0  0  0
 11 39  1  0  0  0  0
 11 40  1  0  0  0  0
 11 41  1  0  0  0  0
 12 29  1  0  0  0  0
 12 42  1  0  0  0  0
 12 43  1  0  0  0  0
 12 44  1  0  0  0  0
 13 27  1  0  0  0  0
 13 45  1  0  0  0  0
 13 46  1  0  0  0  0
 13 47  1  0  0  0  0
 14 22  2  0  0  0  0
 14 48  1  0  0  0  0
 15 23  2  0  0  0  0
 15 49  1  0  0  0  0
 16 17  1  0  0  0  0
 16 50  1  0  0  0  0
 16 51  1  0  0  0  0
 17 25  1  0  0  0  0
 17 52  1  0  0  0  0
 18 20  1  0  0  0  0
 18 24  1  0  0  0  0
 18 53  1  0  0  0  0
 18 54  1  0  0  0  0
 19 21  1  0  0  0  0
 19 24  1  0  0  0  0
 19 55  1  0  0  0  0
 19 56  1  0  0  0  0
 20 27  1  0  0  0  0
 20 57  1  0  0  0  0
 20 58  1  0  0  0  0
 21 27  1  0  0  0  0
 21 59  1  0  0  0  0
 21 60  1  0  0  0  0
 22 23  1  0  0  0  0
 22 28  1  0  0  0  0
 23 29  1  0  0  0  0
 24 26  1  0  0  0  0
 24 61  1  6  0  0  0
 26 62  1  0  0  0  0
 27 63  1  1  0  0  0
M  CHG  1  27   1
M  END
$$$$
