9HV
 OpenBabel04161912143D

 55 56  0  0  1  0  0  0  0  0999 V2000
   24.3959  -29.8894  283.1191 C   0  0  2  0  0  0  0  0  0  0  0  0
   23.1690  -29.7716  284.0548 C   0  0  0  0  0  0  0  0  0  0  0  0
   25.2996  -31.5622  284.8080 C   0  0  0  0  0  0  0  0  0  0  0  0
   26.0312  -32.8730  284.9020 C   0  0  0  0  0  0  0  0  0  0  0  0
   25.3277  -35.3146  285.6220 O   0  0  0  0  0  0  0  0  0  0  0  0
   26.3390  -31.1915  282.4744 C   0  0  2  0  0  0  0  0  0  0  0  0
   27.7643  -30.6508  282.3215 C   0  0  0  0  0  0  0  0  0  0  0  0
   23.7687  -34.1816  279.6955 O   0  0  0  0  0  0  0  0  0  0  0  0
   28.2216  -31.4718  277.4501 C   0  0  0  0  0  0  0  0  0  0  0  0
   27.1851  -32.2747  278.2479 C   0  0  2  0  0  0  0  0  0  0  0  0
   25.0026  -32.1182  279.2039 C   0  0  2  0  0  0  0  0  0  0  0  0
   25.4668  -30.9439  281.2442 C   0  0  2  0  0  0  0  0  0  0  0  0
   24.0796  -30.6389  281.8129 C   0  0  2  0  0  0  0  0  0  0  0  0
   24.6328  -33.5496  278.7505 C   0  0  1  0  0  0  0  0  0  0  0  0
   25.8801  -34.4050  278.4507 C   0  0  2  0  0  0  0  0  0  0  0  0
   26.8724  -33.6140  277.5744 C   0  0  2  0  0  0  0  0  0  0  0  0
   25.6497  -30.5788  283.6824 N   0  3  1  0  0  0  0  0  0  0  0  0
   29.5555  -31.9441  277.6265 O   0  0  0  0  0  0  0  0  0  0  0  0
   25.9757  -31.5061  278.3424 O   0  0  0  0  0  0  0  0  0  0  0  0
   25.4994  -32.1728  280.5187 O   0  0  0  0  0  0  0  0  0  0  0  0
   23.3752  -29.7974  280.8899 O   0  0  0  0  0  0  0  0  0  0  0  0
   22.3046  -28.7262  283.5999 O   0  0  0  0  0  0  0  0  0  0  0  0
   23.5259  -33.4686  285.6139 O   0  0  0  0  0  0  0  0  0  0  0  0
   24.4730  -34.2918  283.3720 O   0  0  0  0  0  0  0  0  0  0  0  0
   27.7921  -29.2836  281.8890 O   0  0  0  0  0  0  0  0  0  0  0  0
   25.5139  -35.6082  277.7469 O   0  0  0  0  0  0  0  0  0  0  0  0
   28.0824  -34.3416  277.3446 O   0  0  0  0  0  0  0  0  0  0  0  0
   24.6659  -34.1806  284.8831 P   0  0  0  0  0  0  0  0  0  0  0  0
   24.7170  -28.8652  282.8658 H   0  0  0  0  0  0  0  0  0  0  0  0
   23.4818  -29.5057  285.0664 H   0  0  0  0  0  0  0  0  0  0  0  0
   22.5809  -30.6953  284.0997 H   0  0  0  0  0  0  0  0  0  0  0  0
   25.4762  -31.0008  285.7293 H   0  0  0  0  0  0  0  0  0  0  0  0
   24.2363  -31.7113  284.7149 H   0  0  0  0  0  0  0  0  0  0  0  0
   26.5667  -32.9743  285.8417 H   0  0  0  0  0  0  0  0  0  0  0  0
   26.7119  -33.1838  284.1154 H   0  0  0  0  0  0  0  0  0  0  0  0
   26.4065  -32.2610  282.6066 H   0  0  0  0  0  0  0  0  0  0  0  0
   28.3031  -31.2328  281.5704 H   0  0  0  0  0  0  0  0  0  0  0  0
   28.3265  -30.7257  283.2611 H   0  0  0  0  0  0  0  0  0  0  0  0
   24.2070  -34.2509  280.5570 H   0  0  0  0  0  0  0  0  0  0  0  0
   28.1992  -30.4182  277.7493 H   0  0  0  0  0  0  0  0  0  0  0  0
   27.9905  -31.5029  276.3783 H   0  0  0  0  0  0  0  0  0  0  0  0
   27.6067  -32.4534  279.2487 H   0  0  0  0  0  0  0  0  0  0  0  0
   24.0968  -31.5033  279.1716 H   0  0  0  0  0  0  0  0  0  0  0  0
   25.8361  -30.1258  280.6160 H   0  0  0  0  0  0  0  0  0  0  0  0
   23.4990  -31.5537  281.9760 H   0  0  0  0  0  0  0  0  0  0  0  0
   24.0604  -33.4577  277.8181 H   0  0  0  0  0  0  0  0  0  0  0  0
   26.3601  -34.7372  279.3785 H   0  0  0  0  0  0  0  0  0  0  0  0
   26.3953  -33.4468  276.5996 H   0  0  0  0  0  0  0  0  0  0  0  0
   29.5313  -32.9146  277.7331 H   0  0  0  0  0  0  0  0  0  0  0  0
   22.4304  -29.8376  281.1170 H   0  0  0  0  0  0  0  0  0  0  0  0
   21.6079  -29.1475  283.0633 H   0  0  0  0  0  0  0  0  0  0  0  0
   27.5320  -28.7002  282.6211 H   0  0  0  0  0  0  0  0  0  0  0  0
   24.8900  -35.3781  277.0407 H   0  0  0  0  0  0  0  0  0  0  0  0
   28.3782  -34.1269  276.4413 H   0  0  0  0  0  0  0  0  0  0  0  0
   26.2359  -29.8661  284.1225 H   0  0  0  0  0  0  0  0  0  0  0  0
  1  2  1  0  0  0  0
  1 13  1  0  0  0  0
  1 17  1  0  0  0  0
  1 29  1  6  0  0  0
  2 22  1  0  0  0  0
  2 30  1  0  0  0  0
  2 31  1  0  0  0  0
  3  4  1  0  0  0  0
  3 17  1  0  0  0  0
  3 32  1  0  0  0  0
  3 33  1  0  0  0  0
  4 28  1  0  0  0  0
  4 34  1  0  0  0  0
  4 35  1  0  0  0  0
  5 28  2  0  0  0  0
  6  7  1  0  0  0  0
  6 12  1  0  0  0  0
  6 17  1  0  0  0  0
  6 36  1  1  0  0  0
  7 25  1  0  0  0  0
  7 37  1  0  0  0  0
  7 38  1  0  0  0  0
  8 14  1  0  0  0  0
  8 39  1  0  0  0  0
  9 10  1  0  0  0  0
  9 18  1  0  0  0  0
  9 40  1  0  0  0  0
  9 41  1  0  0  0  0
 10 16  1  0  0  0  0
 10 19  1  0  0  0  0
 10 42  1  1  0  0  0
 11 14  1  0  0  0  0
 11 19  1  0  0  0  0
 11 20  1  0  0  0  0
 11 43  1  6  0  0  0
 12 13  1  0  0  0  0
 12 20  1  0  0  0  0
 12 44  1  6  0  0  0
 13 21  1  0  0  0  0
 13 45  1  1  0  0  0
 14 15  1  0  0  0  0
 14 46  1  6  0  0  0
 15 16  1  0  0  0  0
 15 26  1  0  0  0  0
 15 47  1  1  0  0  0
 16 27  1  0  0  0  0
 16 48  1  6  0  0  0
 17 55  1  1  0  0  0
 18 49  1  0  0  0  0
 21 50  1  0  0  0  0
 22 51  1  0  0  0  0
 23 28  1  0  0  0  0
 24 28  1  0  0  0  0
 25 52  1  0  0  0  0
 26 53  1  0  0  0  0
 27 54  1  0  0  0  0
M  CHG  1  17   1
M  END
$$$$
