9MG
 OpenBabel04161911573D

 19 20  0  0  0  0  0  0  0  0999 V2000
    8.2979   -4.2001   27.6989 C   0  0  0  0  0  0  0  0  0  0  0  0
    8.3725   -3.5962   26.3973 N   0  3  0  0  0  0  0  0  0  0  0  0
    7.5196   -3.7891   25.3440 C   0  0  0  0  0  0  0  0  0  0  0  0
    7.8689   -3.0798   24.2874 N   0  0  0  0  0  0  0  0  0  0  0  0
    8.9965   -2.4014   24.6809 C   0  0  0  0  0  0  0  0  0  0  0  0
    9.8372   -1.4613   23.9518 C   0  0  0  0  0  0  0  0  0  0  0  0
    9.6472   -1.1065   22.7931 O   0  0  0  0  0  0  0  0  0  0  0  0
   10.9069   -0.9855   24.7115 N   0  3  0  0  0  0  0  0  0  0  0  0
   11.1902   -1.3271   26.0178 C   0  0  0  0  0  0  0  0  0  0  0  0
   12.2270   -0.7688   26.5339 N   0  0  0  0  0  0  0  0  0  0  0  0
   10.3645   -2.2163   26.6579 N   0  3  0  0  0  0  0  0  0  0  0  0
    9.3128   -2.7137   25.9800 C   0  0  0  0  0  0  0  0  0  0  0  0
    7.4349   -4.8643   27.7451 H   0  0  0  0  0  0  0  0  0  0  0  0
    8.2055   -3.4023   28.4405 H   0  0  0  0  0  0  0  0  0  0  0  0
    9.2210   -4.7615   27.8668 H   0  0  0  0  0  0  0  0  0  0  0  0
    6.6651   -4.4511   25.3945 H   0  0  0  0  0  0  0  0  0  0  0  0
   11.5277   -0.3311   24.2647 H   0  0  0  0  0  0  0  0  0  0  0  0
   12.3567   -1.0792   27.4981 H   0  0  0  0  0  0  0  0  0  0  0  0
   10.5710   -2.4697   27.6167 H   0  0  0  0  0  0  0  0  0  0  0  0
  1  2  1  0  0  0  0
  1 13  1  0  0  0  0
  1 14  1  0  0  0  0
  1 15  1  0  0  0  0
  2  3  2  0  0  0  0
  2 12  1  0  0  0  0
  3  4  1  0  0  0  0
  3 16  1  0  0  0  0
  4  5  2  0  0  0  0
  5  6  1  0  0  0  0
  5 12  1  0  0  0  0
  6  7  2  0  0  0  0
  6  8  1  0  0  0  0
  8  9  1  0  0  0  0
  8 17  1  0  0  0  0
  9 10  2  0  0  0  0
  9 11  1  0  0  0  0
 10 18  1  0  0  0  0
 11 12  2  0  0  0  0
 11 19  1  0  0  0  0
M  CHG  3   2   1   8   1  11   1
M  END
$$$$
