9ZS
 OpenBabel04161912153D

 35 38  0  0  0  0  0  0  0  0999 V2000
   -6.6265    6.5489   16.0892 C   0  0  0  0  0  0  0  0  0  0  0  0
   -7.2084    5.2712   16.1769 C   0  0  0  0  0  0  0  0  0  0  0  0
   -6.4161    4.1159   16.2603 C   0  0  0  0  0  0  0  0  0  0  0  0
   -8.8505    9.2462   15.0721 C   0  0  0  0  0  0  0  0  0  0  0  0
   -7.4579    7.7503   15.9771 C   0  0  0  0  0  0  0  0  0  0  0  0
   -9.7285    9.9697   14.2725 C   0  0  0  0  0  0  0  0  0  0  0  0
  -10.3471   11.0288   14.9114 C   0  0  0  0  0  0  0  0  0  0  0  0
   -5.2235    6.6315   16.1049 C   0  0  0  0  0  0  0  0  0  0  0  0
   -5.0253    4.2165   16.2596 C   0  0  0  0  0  0  0  0  0  0  0  0
   -4.4304    5.4758   16.1861 C   0  0  0  0  0  0  0  0  0  0  0  0
   -8.9295    5.0590   16.1727 Cl  0  0  0  0  0  0  0  0  0  0  0  0
   -8.1251    8.0935   14.8221 N   0  3  0  0  0  0  0  0  0  0  0  0
  -10.1347   11.3884   16.1953 N   0  0  0  0  0  0  0  0  0  0  0  0
   -9.1972   10.7219   16.9383 C   0  0  0  0  0  0  0  0  0  0  0  0
   -8.5529    9.5854   16.3842 C   0  0  0  0  0  0  0  0  0  0  0  0
   -7.7115    8.6250   16.9307 N   0  0  0  0  0  0  0  0  0  0  0  0
   -9.0825   11.1707   18.2581 N   0  0  0  0  0  0  0  0  0  0  0  0
   -7.9005   11.3234   18.9435 C   0  0  0  0  0  0  0  0  0  0  0  0
   -6.7824   11.0237   18.5531 O   0  0  0  0  0  0  0  0  0  0  0  0
   -8.0708   12.0407   20.2589 C   0  0  0  0  0  0  0  0  0  0  0  0
   -7.0650   11.8411   21.3731 C   0  0  0  0  0  0  0  0  0  0  0  0
   -7.1215   13.1593   20.6510 C   0  0  0  0  0  0  0  0  0  0  0  0
   -4.4032    8.1510   15.9801 Cl  0  0  0  0  0  0  0  0  0  0  0  0
   -6.8817    3.1342   16.3278 H   0  0  0  0  0  0  0  0  0  0  0  0
   -9.9407    9.7118   13.2438 H   0  0  0  0  0  0  0  0  0  0  0  0
  -11.0632   11.6473   14.3670 H   0  0  0  0  0  0  0  0  0  0  0  0
   -4.4037    3.3257   16.3181 H   0  0  0  0  0  0  0  0  0  0  0  0
   -3.3456    5.5520   16.1887 H   0  0  0  0  0  0  0  0  0  0  0  0
   -8.1236    7.5647   13.9648 H   0  0  0  0  0  0  0  0  0  0  0  0
   -9.9097   11.6334   18.5980 H   0  0  0  0  0  0  0  0  0  0  0  0
   -9.1035   12.1733   20.5693 H   0  0  0  0  0  0  0  0  0  0  0  0
   -6.2197   11.1851   21.1890 H   0  0  0  0  0  0  0  0  0  0  0  0
   -7.4199   11.7957   22.3968 H   0  0  0  0  0  0  0  0  0  0  0  0
   -7.5081   14.0207   21.1862 H   0  0  0  0  0  0  0  0  0  0  0  0
   -6.3095   13.4153   19.9773 H   0  0  0  0  0  0  0  0  0  0  0  0
  1  2  2  0  0  0  0
  1  5  1  0  0  0  0
  1  8  1  0  0  0  0
  2  3  1  0  0  0  0
  2 11  1  0  0  0  0
  3  9  2  0  0  0  0
  3 24  1  0  0  0  0
  4  6  2  0  0  0  0
  4 12  1  0  0  0  0
  4 15  1  0  0  0  0
  5 12  2  0  0  0  0
  5 16  1  0  0  0  0
  6  7  1  0  0  0  0
  6 25  1  0  0  0  0
  7 13  2  0  0  0  0
  7 26  1  0  0  0  0
  8 10  2  0  0  0  0
  8 23  1  0  0  0  0
  9 10  1  0  0  0  0
  9 27  1  0  0  0  0
 10 28  1  0  0  0  0
 12 29  1  0  0  0  0
 13 14  1  0  0  0  0
 14 15  2  0  0  0  0
 14 17  1  0  0  0  0
 15 16  1  0  0  0  0
 17 18  1  0  0  0  0
 17 30  1  0  0  0  0
 18 19  2  0  0  0  0
 18 20  1  0  0  0  0
 20 21  1  0  0  0  0
 20 22  1  0  0  0  0
 20 31  1  0  0  0  0
 21 22  1  0  0  0  0
 21 32  1  0  0  0  0
 21 33  1  0  0  0  0
 22 34  1  0  0  0  0
 22 35  1  0  0  0  0
M  CHG  1  12   1
M  END
$$$$
