A0Q
 OpenBabel04161911413D

 57 60  0  0  0  0  0  0  0  0999 V2000
    1.3111   -4.5729   19.2519 C   0  0  0  0  0  0  0  0  0  0  0  0
    2.3222   -5.0011   18.3675 C   0  0  0  0  0  0  0  0  0  0  0  0
    1.9955   -5.8949   17.3377 C   0  0  0  0  0  0  0  0  0  0  0  0
    0.6775   -6.3340   17.2262 C   0  0  0  0  0  0  0  0  0  0  0  0
   -0.3013   -5.9113   18.1404 C   0  0  0  0  0  0  0  0  0  0  0  0
   -0.0138   -5.0363   19.1979 C   0  0  0  0  0  0  0  0  0  0  0  0
    2.9996   -6.2889   16.5034 O   0  0  0  0  0  0  0  0  0  0  0  0
    2.6892   -7.0620   15.3463 C   0  0  0  0  0  0  0  0  0  0  0  0
    4.0054   -7.2939   14.6532 C   0  0  0  0  0  0  0  0  0  0  0  0
   -0.9795   -4.5900   20.1247 N   0  0  0  0  0  0  0  0  0  0  0  0
    3.6896   -4.4127   18.6036 C   0  0  0  0  0  0  0  0  0  0  0  0
    4.7172   -4.9209   17.8392 N   0  0  0  0  0  0  0  0  0  0  0  0
    3.8049   -3.5365   19.4552 O   0  0  0  0  0  0  0  0  0  0  0  0
    6.0337   -4.4360   17.7282 C   0  0  0  0  0  0  0  0  0  0  0  0
    6.5318   -3.3369   18.4204 C   0  0  0  0  0  0  0  0  0  0  0  0
    7.8314   -2.8965   18.1721 C   0  0  0  0  0  0  0  0  0  0  0  0
    8.5978   -3.5805   17.2431 C   0  0  0  0  0  0  0  0  0  0  0  0
    8.1627   -4.6639   16.5685 N   0  0  0  0  0  0  0  0  0  0  0  0
    6.8954   -5.0626   16.8268 C   0  0  0  0  0  0  0  0  0  0  0  0
    4.4571   -6.4098   13.6636 C   0  0  0  0  0  0  0  0  0  0  0  0
    5.7087   -6.5915   13.0736 C   0  0  0  0  0  0  0  0  0  0  0  0
    6.5217   -7.6505   13.4733 C   0  0  0  0  0  0  0  0  0  0  0  0
    6.0870   -8.5284   14.4644 C   0  0  0  0  0  0  0  0  0  0  0  0
    4.8368   -8.3497   15.0554 C   0  0  0  0  0  0  0  0  0  0  0  0
   -0.4773   -4.3468   21.5043 C   0  0  0  0  0  0  0  0  0  0  0  0
   -1.5173   -3.6454   22.3962 C   0  0  0  0  0  0  0  0  0  0  0  0
   -2.8421   -4.3841   22.3621 N   0  3  0  0  0  0  0  0  0  0  0  0
   -3.3468   -4.4558   20.9313 C   0  0  0  0  0  0  0  0  0  0  0  0
   -2.3300   -5.1876   20.0352 C   0  0  0  0  0  0  0  0  0  0  0  0
   -3.8476   -3.7773   23.2893 C   0  0  0  0  0  0  0  0  0  0  0  0
    1.6006   -3.8291   19.9876 H   0  0  0  0  0  0  0  0  0  0  0  0
    0.3663   -7.0150   16.4394 H   0  0  0  0  0  0  0  0  0  0  0  0
   -1.2985   -6.3116   17.9821 H   0  0  0  0  0  0  0  0  0  0  0  0
    1.9998   -6.5207   14.6872 H   0  0  0  0  0  0  0  0  0  0  0  0
    2.2468   -8.0255   15.6258 H   0  0  0  0  0  0  0  0  0  0  0  0
    4.4776   -5.6846   17.2123 H   0  0  0  0  0  0  0  0  0  0  0  0
    5.9333   -2.7931   19.1427 H   0  0  0  0  0  0  0  0  0  0  0  0
    8.2305   -2.0300   18.6873 H   0  0  0  0  0  0  0  0  0  0  0  0
    9.6089   -3.2628   17.0076 H   0  0  0  0  0  0  0  0  0  0  0  0
    6.5779   -5.9292   16.2537 H   0  0  0  0  0  0  0  0  0  0  0  0
    3.8446   -5.5654   13.3523 H   0  0  0  0  0  0  0  0  0  0  0  0
    6.0555   -5.8979   12.3103 H   0  0  0  0  0  0  0  0  0  0  0  0
    7.5012   -7.7836   13.0201 H   0  0  0  0  0  0  0  0  0  0  0  0
    6.7307   -9.3443   14.7839 H   0  0  0  0  0  0  0  0  0  0  0  0
    4.5225   -9.0307   15.8437 H   0  0  0  0  0  0  0  0  0  0  0  0
    0.3945   -3.6873   21.5192 H   0  0  0  0  0  0  0  0  0  0  0  0
   -0.1862   -5.3027   21.9574 H   0  0  0  0  0  0  0  0  0  0  0  0
   -1.7070   -2.6213   22.0538 H   0  0  0  0  0  0  0  0  0  0  0  0
   -1.1776   -3.6271   23.4370 H   0  0  0  0  0  0  0  0  0  0  0  0
   -3.5066   -3.4266   20.5907 H   0  0  0  0  0  0  0  0  0  0  0  0
   -4.3015   -4.9920   20.9460 H   0  0  0  0  0  0  0  0  0  0  0  0
   -2.2850   -6.2454   20.3253 H   0  0  0  0  0  0  0  0  0  0  0  0
   -2.7190   -5.1204   19.0133 H   0  0  0  0  0  0  0  0  0  0  0  0
   -3.4274   -3.7893   24.2983 H   0  0  0  0  0  0  0  0  0  0  0  0
   -4.7517   -4.3903   23.2542 H   0  0  0  0  0  0  0  0  0  0  0  0
   -4.0536   -2.7546   22.9627 H   0  0  0  0  0  0  0  0  0  0  0  0
   -2.6629   -5.3467   22.6767 H   0  0  0  0  0  0  0  0  0  0  0  0
  1  2  2  0  0  0  0
  1  6  1  0  0  0  0
  1 31  1  0  0  0  0
  2  3  1  0  0  0  0
  2 11  1  0  0  0  0
  3  4  2  0  0  0  0
  3  7  1  0  0  0  0
  4  5  1  0  0  0  0
  4 32  1  0  0  0  0
  5  6  2  0  0  0  0
  5 33  1  0  0  0  0
  6 10  1  0  0  0  0
  7  8  1  0  0  0  0
  8  9  1  0  0  0  0
  8 34  1  0  0  0  0
  8 35  1  0  0  0  0
  9 20  2  0  0  0  0
  9 24  1  0  0  0  0
 10 25  1  0  0  0  0
 10 29  1  0  0  0  0
 11 12  1  0  0  0  0
 11 13  2  0  0  0  0
 12 14  1  0  0  0  0
 12 36  1  0  0  0  0
 14 15  2  0  0  0  0
 14 19  1  0  0  0  0
 15 16  1  0  0  0  0
 15 37  1  0  0  0  0
 16 17  2  0  0  0  0
 16 38  1  0  0  0  0
 17 18  1  0  0  0  0
 17 39  1  0  0  0  0
 18 19  2  0  0  0  0
 19 40  1  0  0  0  0
 20 21  1  0  0  0  0
 20 41  1  0  0  0  0
 21 22  2  0  0  0  0
 21 42  1  0  0  0  0
 22 23  1  0  0  0  0
 22 43  1  0  0  0  0
 23 24  2  0  0  0  0
 23 44  1  0  0  0  0
 24 45  1  0  0  0  0
 25 26  1  0  0  0  0
 25 46  1  0  0  0  0
 25 47  1  0  0  0  0
 26 27  1  0  0  0  0
 26 48  1  0  0  0  0
 26 49  1  0  0  0  0
 27 28  1  0  0  0  0
 27 30  1  0  0  0  0
 27 57  1  0  0  0  0
 28 29  1  0  0  0  0
 28 50  1  0  0  0  0
 28 51  1  0  0  0  0
 29 52  1  0  0  0  0
 29 53  1  0  0  0  0
 30 54  1  0  0  0  0
 30 55  1  0  0  0  0
 30 56  1  0  0  0  0
M  CHG  1  27   1
M  END
$$$$
