A0T
 OpenBabel04161911413D

 52 54  0  0  0  0  0  0  0  0999 V2000
    3.5079   -6.1296   16.3343 C   0  0  0  0  0  0  0  0  0  0  0  0
    3.8872   -5.8240   17.7697 C   0  0  0  0  0  0  0  0  0  0  0  0
    4.9481   -4.8235   17.7704 N   0  0  0  0  0  0  0  0  0  0  0  0
    4.8512   -3.7366   18.6251 C   0  0  0  0  0  0  0  0  0  0  0  0
    5.8602   -2.8232   18.7983 C   0  0  0  0  0  0  0  0  0  0  0  0
    5.5521   -1.7396   19.6087 C   0  0  0  0  0  0  0  0  0  0  0  0
    4.3505   -1.5387   20.1843 N   0  0  0  0  0  0  0  0  0  0  0  0
    3.4152   -2.4631   19.9341 C   0  0  0  0  0  0  0  0  0  0  0  0
    3.6588   -3.5438   19.1962 N   0  0  0  0  0  0  0  0  0  0  0  0
    2.1581   -2.2966   20.4904 N   0  0  0  0  0  0  0  0  0  0  0  0
    0.9594   -3.0190   20.3416 C   0  0  0  0  0  0  0  0  0  0  0  0
    0.7137   -3.9064   19.2798 C   0  0  0  0  0  0  0  0  0  0  0  0
   -0.4839   -4.6177   19.1850 C   0  0  0  0  0  0  0  0  0  0  0  0
   -1.4630   -4.4502   20.1490 C   0  0  0  0  0  0  0  0  0  0  0  0
   -1.2435   -3.5701   21.2171 C   0  0  0  0  0  0  0  0  0  0  0  0
   -0.0382   -2.8771   21.3285 C   0  0  0  0  0  0  0  0  0  0  0  0
    0.2609   -2.0058   22.3496 O   0  0  0  0  0  0  0  0  0  0  0  0
   -0.5975   -2.0565   23.4828 C   0  0  0  0  0  0  0  0  0  0  0  0
   -2.8148   -5.0109   20.0207 C   0  0  0  0  0  0  0  0  0  0  0  0
   -3.7078   -4.2012   19.7930 O   0  0  0  0  0  0  0  0  0  0  0  0
   -3.0545   -6.3488   20.3102 N   0  0  0  0  0  0  0  0  0  0  0  0
   -4.4220   -6.7390   20.6307 C   0  0  0  0  0  0  0  0  0  0  0  0
   -4.5039   -6.9345   22.1351 C   0  0  0  0  0  0  0  0  0  0  0  0
   -3.6911   -8.0605   22.5051 O   0  0  0  0  0  0  0  0  0  0  0  0
   -2.3183   -7.9358   22.1057 C   0  0  0  0  0  0  0  0  0  0  0  0
   -2.0653   -7.3576   20.6947 C   0  0  0  0  0  0  0  0  0  0  0  0
    7.2070   -2.9642   18.2108 C   0  0  0  0  0  0  0  0  0  0  0  0
   -0.6748   -5.4407   18.1434 F   0  0  0  0  0  0  0  0  0  0  0  0
    7.2012   -2.9578   16.8487 F   0  0  0  0  0  0  0  0  0  0  0  0
    7.8247   -4.1278   18.5675 F   0  0  0  0  0  0  0  0  0  0  0  0
    8.0715   -1.9728   18.5745 F   0  0  0  0  0  0  0  0  0  0  0  0
    2.6669   -6.8286   16.2997 H   0  0  0  0  0  0  0  0  0  0  0  0
    4.3531   -6.5699   15.7972 H   0  0  0  0  0  0  0  0  0  0  0  0
    3.2119   -5.2131   15.8118 H   0  0  0  0  0  0  0  0  0  0  0  0
    4.2182   -6.7337   18.2851 H   0  0  0  0  0  0  0  0  0  0  0  0
    2.9749   -5.5102   18.2847 H   0  0  0  0  0  0  0  0  0  0  0  0
    5.8539   -5.1428   17.4498 H   0  0  0  0  0  0  0  0  0  0  0  0
    6.2807   -0.9610   19.8152 H   0  0  0  0  0  0  0  0  0  0  0  0
    2.1359   -1.5488   21.1701 H   0  0  0  0  0  0  0  0  0  0  0  0
    1.4322   -4.0266   18.4777 H   0  0  0  0  0  0  0  0  0  0  0  0
   -2.0613   -3.4205   21.9163 H   0  0  0  0  0  0  0  0  0  0  0  0
   -0.2155   -1.3521   24.2272 H   0  0  0  0  0  0  0  0  0  0  0  0
   -0.5920   -3.0576   23.9293 H   0  0  0  0  0  0  0  0  0  0  0  0
   -1.6113   -1.7422   23.2224 H   0  0  0  0  0  0  0  0  0  0  0  0
   -4.6311   -7.6833   20.1061 H   0  0  0  0  0  0  0  0  0  0  0  0
   -5.1545   -5.9875   20.2892 H   0  0  0  0  0  0  0  0  0  0  0  0
   -5.5297   -7.1512   22.4445 H   0  0  0  0  0  0  0  0  0  0  0  0
   -4.1689   -6.0414   22.6844 H   0  0  0  0  0  0  0  0  0  0  0  0
   -1.8974   -8.9477   22.1422 H   0  0  0  0  0  0  0  0  0  0  0  0
   -1.7867   -7.3449   22.8605 H   0  0  0  0  0  0  0  0  0  0  0  0
   -1.0492   -6.9769   20.6278 H   0  0  0  0  0  0  0  0  0  0  0  0
   -2.1590   -8.1618   19.9553 H   0  0  0  0  0  0  0  0  0  0  0  0
  1  2  1  0  0  0  0
  1 32  1  0  0  0  0
  1 33  1  0  0  0  0
  1 34  1  0  0  0  0
  2  3  1  0  0  0  0
  2 35  1  0  0  0  0
  2 36  1  0  0  0  0
  3  4  1  0  0  0  0
  3 37  1  0  0  0  0
  4  5  2  0  0  0  0
  4  9  1  0  0  0  0
  5  6  1  0  0  0  0
  5 27  1  0  0  0  0
  6  7  2  0  0  0  0
  6 38  1  0  0  0  0
  7  8  1  0  0  0  0
  8  9  2  0  0  0  0
  8 10  1  0  0  0  0
 10 11  1  0  0  0  0
 10 39  1  0  0  0  0
 11 12  2  0  0  0  0
 11 16  1  0  0  0  0
 12 13  1  0  0  0  0
 12 40  1  0  0  0  0
 13 14  2  0  0  0  0
 13 28  1  0  0  0  0
 14 15  1  0  0  0  0
 14 19  1  0  0  0  0
 15 16  2  0  0  0  0
 15 41  1  0  0  0  0
 16 17  1  0  0  0  0
 17 18  1  0  0  0  0
 18 42  1  0  0  0  0
 18 43  1  0  0  0  0
 18 44  1  0  0  0  0
 19 20  2  0  0  0  0
 19 21  1  0  0  0  0
 21 22  1  0  0  0  0
 21 26  1  0  0  0  0
 22 23  1  0  0  0  0
 22 45  1  0  0  0  0
 22 46  1  0  0  0  0
 23 24  1  0  0  0  0
 23 47  1  0  0  0  0
 23 48  1  0  0  0  0
 24 25  1  0  0  0  0
 25 26  1  0  0  0  0
 25 49  1  0  0  0  0
 25 50  1  0  0  0  0
 26 51  1  0  0  0  0
 26 52  1  0  0  0  0
 27 29  1  0  0  0  0
 27 30  1  0  0  0  0
 27 31  1  0  0  0  0
M  END
$$$$
