A1Y
 OpenBabel04161912153D

 31 32  0  0  0  0  0  0  0  0999 V2000
   -3.0208   -0.7024   17.9448 N   0  0  0  0  0  0  0  0  0  0  0  0
   -5.6961   -0.2283   20.3268 C   0  0  0  0  0  0  0  0  0  0  0  0
   -2.1477   -4.0911   19.3441 N   0  0  0  0  0  0  0  0  0  0  0  0
   -2.9167   -3.2258   19.4736 C   0  0  0  0  0  0  0  0  0  0  0  0
   -3.9219   -2.2245   19.6913 C   0  0  0  0  0  0  0  0  0  0  0  0
   -2.2793   -1.2229   15.6436 C   0  0  0  0  0  0  0  0  0  0  0  0
   -3.2307   -1.6051   16.7846 C   0  0  0  0  0  0  0  0  0  0  0  0
   -5.0966   -3.8267   21.2864 C   0  0  0  0  0  0  0  0  0  0  0  0
   -4.9346   -2.4764   20.6437 C   0  0  0  0  0  0  0  0  0  0  0  0
   -5.8275   -1.4503   20.9646 C   0  0  0  0  0  0  0  0  0  0  0  0
   -4.7683   -0.0101   19.3739 N   0  0  0  0  0  0  0  0  0  0  0  0
   -3.9007   -0.9920   19.0177 C   0  0  0  0  0  0  0  0  0  0  0  0
   -2.5085    0.1277   15.2214 O   0  0  0  0  0  0  0  0  0  0  0  0
   -2.2195    1.0158   16.3083 C   0  0  0  0  0  0  0  0  0  0  0  0
   -3.1012    0.7323   17.5339 C   0  0  0  0  0  0  0  0  0  0  0  0
   -6.6105    0.9150   20.6452 C   0  0  0  0  0  0  0  0  0  0  0  0
   -2.4418   -1.8797   14.7836 H   0  0  0  0  0  0  0  0  0  0  0  0
   -1.2327   -1.3278   15.9546 H   0  0  0  0  0  0  0  0  0  0  0  0
   -4.2691   -1.5295   16.4369 H   0  0  0  0  0  0  0  0  0  0  0  0
   -3.0283   -2.6478   17.0374 H   0  0  0  0  0  0  0  0  0  0  0  0
   -5.9232   -3.8332   22.0048 H   0  0  0  0  0  0  0  0  0  0  0  0
   -4.1885   -4.1161   21.8250 H   0  0  0  0  0  0  0  0  0  0  0  0
   -5.3231   -4.5806   20.5224 H   0  0  0  0  0  0  0  0  0  0  0  0
   -6.6069   -1.5974   21.7045 H   0  0  0  0  0  0  0  0  0  0  0  0
   -2.3891    2.0388   15.9556 H   0  0  0  0  0  0  0  0  0  0  0  0
   -1.1549    0.9263   16.5650 H   0  0  0  0  0  0  0  0  0  0  0  0
   -2.7694    1.3786   18.3551 H   0  0  0  0  0  0  0  0  0  0  0  0
   -4.1325    1.0007   17.2636 H   0  0  0  0  0  0  0  0  0  0  0  0
   -6.3554    1.7938   20.0424 H   0  0  0  0  0  0  0  0  0  0  0  0
   -6.5193    1.1922   21.7001 H   0  0  0  0  0  0  0  0  0  0  0  0
   -7.6465    0.6433   20.4270 H   0  0  0  0  0  0  0  0  0  0  0  0
  1  7  1  0  0  0  0
  1 12  1  0  0  0  0
  1 15  1  0  0  0  0
  2 10  2  0  0  0  0
  2 11  1  0  0  0  0
  2 16  1  0  0  0  0
  3  4  3  0  0  0  0
  4  5  1  0  0  0  0
  5  9  2  0  0  0  0
  5 12  1  0  0  0  0
  6  7  1  0  0  0  0
  6 13  1  0  0  0  0
  6 17  1  0  0  0  0
  6 18  1  0  0  0  0
  7 19  1  0  0  0  0
  7 20  1  0  0  0  0
  8  9  1  0  0  0  0
  8 21  1  0  0  0  0
  8 22  1  0  0  0  0
  8 23  1  0  0  0  0
  9 10  1  0  0  0  0
 10 24  1  0  0  0  0
 11 12  2  0  0  0  0
 13 14  1  0  0  0  0
 14 15  1  0  0  0  0
 14 25  1  0  0  0  0
 14 26  1  0  0  0  0
 15 27  1  0  0  0  0
 15 28  1  0  0  0  0
 16 29  1  0  0  0  0
 16 30  1  0  0  0  0
 16 31  1  0  0  0  0
M  END
$$$$
