A3P
 OpenBabel04161911133D

 38 40  0  0  1  0  0  0  0  0999 V2000
   35.5378   31.2906   21.9417 P   0  0  0  0  0  0  0  0  0  0  0  0
   35.2263   31.8057   20.5453 O   0  0  0  0  0  0  0  0  0  0  0  0
   35.5252   29.7797   22.0742 O   0  0  0  0  0  0  0  0  0  0  0  0
   36.7230   31.9893   22.6023 O   0  0  0  0  0  0  0  0  0  0  0  0
   29.7487   30.1330   26.8354 P   0  0  0  0  0  0  0  0  0  0  0  0
   28.2875   30.2454   26.4147 O   0  0  0  0  0  0  0  0  0  0  0  0
   30.2523   28.6987   26.9481 O   0  0  0  0  0  0  0  0  0  0  0  0
   30.1308   31.0088   28.0218 O   0  0  0  0  0  0  0  0  0  0  0  0
   30.5580   30.7827   25.5702 O   0  0  0  0  0  0  0  0  0  0  0  0
   31.9668   30.6026   25.5162 C   0  0  0  0  0  0  0  0  0  0  0  0
   32.5708   31.5940   24.4947 C   0  0  1  0  0  0  0  0  0  0  0  0
   32.5425   32.9697   25.0201 O   0  0  0  0  0  0  0  0  0  0  0  0
   34.0502   31.2987   24.1464 C   0  0  1  0  0  0  0  0  0  0  0  0
   34.2844   31.8258   22.8414 O   0  0  0  0  0  0  0  0  0  0  0  0
   34.7414   32.1315   25.2283 C   0  0  1  0  0  0  0  0  0  0  0  0
   36.1287   32.4137   25.1109 O   0  0  0  0  0  0  0  0  0  0  0  0
   33.9024   33.4083   25.1821 C   0  0  2  0  0  0  0  0  0  0  0  0
   33.9693   34.2568   26.3572 N   0  3  0  0  0  0  0  0  0  0  0  0
   34.1404   33.8397   27.6624 C   0  0  0  0  0  0  0  0  0  0  0  0
   34.1794   34.8412   28.5176 N   0  0  0  0  0  0  0  0  0  0  0  0
   33.9572   35.9518   27.7438 C   0  0  0  0  0  0  0  0  0  0  0  0
   33.8309   37.3083   28.0938 C   0  0  0  0  0  0  0  0  0  0  0  0
   33.9655   37.7324   29.4011 N   0  0  0  0  0  0  0  0  0  0  0  0
   33.6203   38.2260   27.1265 N   0  0  0  0  0  0  0  0  0  0  0  0
   33.5481   37.7532   25.8531 C   0  0  0  0  0  0  0  0  0  0  0  0
   33.6539   36.5013   25.3946 N   0  0  0  0  0  0  0  0  0  0  0  0
   33.8396   35.6299   26.3947 C   0  0  0  0  0  0  0  0  0  0  0  0
   32.1475   29.5766   25.1774 H   0  0  0  0  0  0  0  0  0  0  0  0
   32.3950   30.7346   26.5153 H   0  0  0  0  0  0  0  0  0  0  0  0
   31.9344   31.6070   23.6036 H   0  0  0  0  0  0  0  0  0  0  0  0
   34.2834   30.2296   24.1802 H   0  0  0  0  0  0  0  0  0  0  0  0
   34.6017   31.6073   26.1810 H   0  0  0  0  0  0  0  0  0  0  0  0
   36.3019   32.5770   24.1363 H   0  0  0  0  0  0  0  0  0  0  0  0
   34.2082   34.0255   24.3271 H   0  0  0  0  0  0  0  0  0  0  0  0
   34.2236   32.7967   27.9252 H   0  0  0  0  0  0  0  0  0  0  0  0
   33.8080   38.7003   29.6123 H   0  0  0  0  0  0  0  0  0  0  0  0
   34.0309   37.0007   30.0955 H   0  0  0  0  0  0  0  0  0  0  0  0
   33.3256   38.5258   25.0739 H   0  0  0  0  0  0  0  0  0  0  0  0
  1  2  2  0  0  0  0
  1  3  1  0  0  0  0
  1  4  1  0  0  0  0
  1 14  1  0  0  0  0
  5  6  2  0  0  0  0
  5  7  1  0  0  0  0
  5  8  1  0  0  0  0
  5  9  1  0  0  0  0
  9 10  1  0  0  0  0
 10 11  1  0  0  0  0
 10 28  1  0  0  0  0
 10 29  1  0  0  0  0
 11 12  1  0  0  0  0
 11 13  1  0  0  0  0
 11 30  1  6  0  0  0
 12 17  1  0  0  0  0
 13 14  1  0  0  0  0
 13 15  1  0  0  0  0
 13 31  1  1  0  0  0
 15 16  1  0  0  0  0
 15 17  1  0  0  0  0
 15 32  1  1  0  0  0
 16 33  1  0  0  0  0
 17 18  1  0  0  0  0
 17 34  1  6  0  0  0
 18 19  2  0  0  0  0
 18 27  1  0  0  0  0
 19 20  1  0  0  0  0
 19 35  1  0  0  0  0
 20 21  1  0  0  0  0
 21 22  2  0  0  0  0
 21 27  1  0  0  0  0
 22 23  1  0  0  0  0
 22 24  1  0  0  0  0
 23 36  1  0  0  0  0
 23 37  1  0  0  0  0
 24 25  2  0  0  0  0
 25 26  1  0  0  0  0
 25 38  1  0  0  0  0
 26 27  2  0  0  0  0
M  CHG  1  18   1
M  END
$$$$
