A5B
 OpenBabel04161910383D

 56 60  0  0  0  0  0  0  0  0999 V2000
  -27.9453   -5.3172  -25.1188 C   0  0  0  0  0  0  0  0  0  0  0  0
  -27.1428   -6.4744  -25.2831 O   0  0  0  0  0  0  0  0  0  0  0  0
  -26.1143   -6.4360  -26.1882 C   0  0  0  0  0  0  0  0  0  0  0  0
  -25.9737   -5.4119  -27.1442 C   0  0  0  0  0  0  0  0  0  0  0  0
  -25.2023   -7.5024  -26.1901 C   0  0  0  0  0  0  0  0  0  0  0  0
  -25.2240   -8.6430  -25.1921 C   0  0  0  0  0  0  0  0  0  0  0  0
  -24.7744   -9.7611  -25.6116 O   0  0  0  0  0  0  0  0  0  0  0  0
  -25.6138   -8.4149  -24.0042 O   0  0  0  0  0  0  0  0  0  0  0  0
  -24.1971   -7.5142  -27.1768 C   0  0  0  0  0  0  0  0  0  0  0  0
  -24.0889   -6.4941  -28.1260 C   0  0  0  0  0  0  0  0  0  0  0  0
  -24.9640   -5.4173  -28.1188 C   0  0  0  0  0  0  0  0  0  0  0  0
  -24.7908   -4.4217  -29.0883 N   0  0  0  0  0  0  0  0  0  0  0  0
  -25.3892   -3.1851  -29.2690 C   0  0  0  0  0  0  0  0  0  0  0  0
  -26.4965   -2.8651  -28.6015 N   0  0  0  0  0  0  0  0  0  0  0  0
  -24.8063   -2.3617  -30.1486 N   0  0  0  0  0  0  0  0  0  0  0  0
  -25.3732   -1.1522  -30.3052 C   0  0  0  0  0  0  0  0  0  0  0  0
  -26.5117   -0.7404  -29.6467 C   0  0  0  0  0  0  0  0  0  0  0  0
  -27.1274    0.5891  -29.8857 C   0  0  0  0  0  0  0  0  0  0  0  0
  -27.2293    1.3898  -28.6831 N   0  0  0  0  0  0  0  0  0  0  0  0
  -27.0606   -1.6594  -28.7840 C   0  0  0  0  0  0  0  0  0  0  0  0
  -28.3154   -1.4683  -28.0333 C   0  0  0  0  0  0  0  0  0  0  0  0
  -29.1114   -2.6071  -27.7457 C   0  0  0  0  0  0  0  0  0  0  0  0
  -30.2998   -2.5290  -27.0188 C   0  0  0  0  0  0  0  0  0  0  0  0
  -30.7344   -1.2945  -26.5705 C   0  0  0  0  0  0  0  0  0  0  0  0
  -32.2026   -1.1729  -25.6828 Cl  0  0  0  0  0  0  0  0  0  0  0  0
  -29.9822   -0.1512  -26.8311 C   0  0  0  0  0  0  0  0  0  0  0  0
  -28.7662   -0.2280  -27.5471 C   0  0  0  0  0  0  0  0  0  0  0  0
  -27.9593    1.0276  -27.6811 C   0  0  0  0  0  0  0  0  0  0  0  0
  -27.9788    1.9682  -26.5382 C   0  0  0  0  0  0  0  0  0  0  0  0
  -27.4263    1.5735  -25.3194 C   0  0  0  0  0  0  0  0  0  0  0  0
  -26.9142    0.3450  -25.1614 F   0  0  0  0  0  0  0  0  0  0  0  0
  -27.4052    2.4502  -24.2415 C   0  0  0  0  0  0  0  0  0  0  0  0
  -27.9464    3.7272  -24.3829 C   0  0  0  0  0  0  0  0  0  0  0  0
  -28.5115    4.1232  -25.5996 C   0  0  0  0  0  0  0  0  0  0  0  0
  -28.5182    3.2504  -26.6896 C   0  0  0  0  0  0  0  0  0  0  0  0
  -29.1445    3.5666  -27.8677 O   0  0  0  0  0  0  0  0  0  0  0  0
  -28.7724    4.8437  -28.3782 C   0  0  0  0  0  0  0  0  0  0  0  0
  -28.6441   -5.5030  -24.2968 H   0  0  0  0  0  0  0  0  0  0  0  0
  -28.5456   -5.1289  -26.0141 H   0  0  0  0  0  0  0  0  0  0  0  0
  -27.3447   -4.4409  -24.8521 H   0  0  0  0  0  0  0  0  0  0  0  0
  -26.6768   -4.5933  -27.1311 H   0  0  0  0  0  0  0  0  0  0  0  0
  -23.4886   -8.3424  -27.1933 H   0  0  0  0  0  0  0  0  0  0  0  0
  -23.2895   -6.5626  -28.8596 H   0  0  0  0  0  0  0  0  0  0  0  0
  -23.9870   -4.5090  -29.6899 H   0  0  0  0  0  0  0  0  0  0  0  0
  -24.8603   -0.5029  -31.0105 H   0  0  0  0  0  0  0  0  0  0  0  0
  -28.0969    0.4878  -30.3876 H   0  0  0  0  0  0  0  0  0  0  0  0
  -26.4957    1.1554  -30.5821 H   0  0  0  0  0  0  0  0  0  0  0  0
  -28.7871   -3.5929  -28.0852 H   0  0  0  0  0  0  0  0  0  0  0  0
  -30.8640   -3.4347  -26.8106 H   0  0  0  0  0  0  0  0  0  0  0  0
  -30.3504    0.8020  -26.4608 H   0  0  0  0  0  0  0  0  0  0  0  0
  -26.9734    2.1295  -23.2984 H   0  0  0  0  0  0  0  0  0  0  0  0
  -27.9422    4.4160  -23.5421 H   0  0  0  0  0  0  0  0  0  0  0  0
  -28.9653    5.1062  -25.6710 H   0  0  0  0  0  0  0  0  0  0  0  0
  -29.1550    4.9239  -29.4001 H   0  0  0  0  0  0  0  0  0  0  0  0
  -27.6835    4.9604  -28.4117 H   0  0  0  0  0  0  0  0  0  0  0  0
  -29.2318    5.6459  -27.7935 H   0  0  0  0  0  0  0  0  0  0  0  0
  1  2  1  0  0  0  0
  1 38  1  0  0  0  0
  1 39  1  0  0  0  0
  1 40  1  0  0  0  0
  2  3  1  0  0  0  0
  3  4  2  0  0  0  0
  3  5  1  0  0  0  0
  4 11  1  0  0  0  0
  4 41  1  0  0  0  0
  5  6  1  0  0  0  0
  5  9  2  0  0  0  0
  6  7  2  0  0  0  0
  6  8  1  0  0  0  0
  9 10  1  0  0  0  0
  9 42  1  0  0  0  0
 10 11  2  0  0  0  0
 10 43  1  0  0  0  0
 11 12  1  0  0  0  0
 12 13  1  0  0  0  0
 12 44  1  0  0  0  0
 13 14  2  0  0  0  0
 13 15  1  0  0  0  0
 14 20  1  0  0  0  0
 15 16  2  0  0  0  0
 16 17  1  0  0  0  0
 16 45  1  0  0  0  0
 17 18  1  0  0  0  0
 17 20  2  0  0  0  0
 18 19  1  0  0  0  0
 18 46  1  0  0  0  0
 18 47  1  0  0  0  0
 19 28  2  0  0  0  0
 20 21  1  0  0  0  0
 21 22  2  0  0  0  0
 21 27  1  0  0  0  0
 22 23  1  0  0  0  0
 22 48  1  0  0  0  0
 23 24  2  0  0  0  0
 23 49  1  0  0  0  0
 24 25  1  0  0  0  0
 24 26  1  0  0  0  0
 26 27  2  0  0  0  0
 26 50  1  0  0  0  0
 27 28  1  0  0  0  0
 28 29  1  0  0  0  0
 29 30  2  0  0  0  0
 29 35  1  0  0  0  0
 30 31  1  0  0  0  0
 30 32  1  0  0  0  0
 32 33  2  0  0  0  0
 32 51  1  0  0  0  0
 33 34  1  0  0  0  0
 33 52  1  0  0  0  0
 34 35  2  0  0  0  0
 34 53  1  0  0  0  0
 35 36  1  0  0  0  0
 36 37  1  0  0  0  0
 37 54  1  0  0  0  0
 37 55  1  0  0  0  0
 37 56  1  0  0  0  0
M  END
$$$$
