A65
 OpenBabel04161911423D

 20 20  0  0  0  0  0  0  0  0999 V2000
  -10.9154   13.3120  -17.1939 C   0  0  0  0  0  0  0  0  0  0  0  0
   -9.6575   12.7182  -17.8047 C   0  0  0  0  0  0  0  0  0  0  0  0
  -10.1750   10.6873  -15.3286 C   0  0  0  0  0  0  0  0  0  0  0  0
  -11.7309   12.8371  -16.1614 C   0  0  0  0  0  0  0  0  0  0  0  0
  -11.4864   14.5603  -17.6666 C   0  0  0  0  0  0  0  0  0  0  0  0
   -9.9639   11.9247  -18.9444 O   0  0  0  0  0  0  0  0  0  0  0  0
  -11.7648   11.4383  -15.1141 S   0  0  0  0  0  0  0  0  0  0  0  0
  -13.0277   13.9434  -15.9127 S   0  0  0  0  0  0  0  0  0  0  0  0
  -12.5859   15.0118  -17.0615 N   0  0  0  0  0  0  0  0  0  0  0  0
  -10.7680   15.5086  -18.9611 S   0  0  0  0  0  0  0  0  0  0  0  0
  -11.9205   16.8873  -19.0366 C   0  0  0  0  0  0  0  0  0  0  0  0
   -9.1025   12.1120  -17.1021 H   0  0  0  0  0  0  0  0  0  0  0  0
   -8.9645   13.5009  -18.1116 H   0  0  0  0  0  0  0  0  0  0  0  0
  -10.1170    9.8073  -14.6898 H   0  0  0  0  0  0  0  0  0  0  0  0
   -9.3913   11.3926  -15.0417 H   0  0  0  0  0  0  0  0  0  0  0  0
  -10.0717   10.3739  -16.3672 H   0  0  0  0  0  0  0  0  0  0  0  0
   -9.1235   11.6122  -19.3181 H   0  0  0  0  0  0  0  0  0  0  0  0
  -11.5955   17.5707  -19.8184 H   0  0  0  0  0  0  0  0  0  0  0  0
  -11.9330   17.4209  -18.0819 H   0  0  0  0  0  0  0  0  0  0  0  0
  -12.9256   16.5277  -19.2734 H   0  0  0  0  0  0  0  0  0  0  0  0
  1  2  1  0  0  0  0
  1  4  2  0  0  0  0
  1  5  1  0  0  0  0
  2  6  1  0  0  0  0
  2 12  1  0  0  0  0
  2 13  1  0  0  0  0
  3  7  1  0  0  0  0
  3 14  1  0  0  0  0
  3 15  1  0  0  0  0
  3 16  1  0  0  0  0
  4  7  1  0  0  0  0
  4  8  1  0  0  0  0
  5  9  2  0  0  0  0
  5 10  1  0  0  0  0
  6 17  1  0  0  0  0
  8  9  1  0  0  0  0
 10 11  1  0  0  0  0
 11 18  1  0  0  0  0
 11 19  1  0  0  0  0
 11 20  1  0  0  0  0
M  END
$$$$
