A6E
 OpenBabel04161911423D

 34 35  0  0  0  0  0  0  0  0999 V2000
  -12.0350   15.5215  -20.1997 C   0  0  0  0  0  0  0  0  0  0  0  0
  -11.1122   14.5194  -19.9573 C   0  0  0  0  0  0  0  0  0  0  0  0
  -11.8019   12.9430  -16.6876 C   0  0  0  0  0  0  0  0  0  0  0  0
  -13.1546   12.8022  -16.0324 C   0  0  0  0  0  0  0  0  0  0  0  0
  -11.8347   11.4660  -14.1109 C   0  0  0  0  0  0  0  0  0  0  0  0
  -10.5845   11.6824  -14.9497 C   0  0  0  0  0  0  0  0  0  0  0  0
   -9.3539   12.3834  -19.3106 C   0  0  0  0  0  0  0  0  0  0  0  0
  -10.4617   11.5002  -18.7814 C   0  0  0  0  0  0  0  0  0  0  0  0
  -10.2246   11.1061  -17.3301 C   0  0  0  0  0  0  0  0  0  0  0  0
  -10.2247   14.6000  -18.8884 C   0  0  0  0  0  0  0  0  0  0  0  0
  -10.2832   15.7185  -18.0504 C   0  0  0  0  0  0  0  0  0  0  0  0
  -11.2091   16.7321  -18.2816 C   0  0  0  0  0  0  0  0  0  0  0  0
   -9.4769   10.2052  -17.0576 O   0  0  0  0  0  0  0  0  0  0  0  0
  -10.8902   11.8599  -16.3716 N   0  0  0  0  0  0  0  0  0  0  0  0
  -12.9822   12.8712  -14.2394 S   0  0  0  0  0  0  0  0  0  0  0  0
   -9.3063   13.6233  -18.5763 O   0  0  0  0  0  0  0  0  0  0  0  0
  -12.0736   16.6255  -19.3605 C   0  0  0  0  0  0  0  0  0  0  0  0
  -12.9538   17.5942  -19.5972 F   0  0  0  0  0  0  0  0  0  0  0  0
  -12.7250   15.4620  -21.0373 H   0  0  0  0  0  0  0  0  0  0  0  0
  -11.0999   13.6623  -20.6204 H   0  0  0  0  0  0  0  0  0  0  0  0
  -11.3250   13.8811  -16.4245 H   0  0  0  0  0  0  0  0  0  0  0  0
  -12.0161   12.9972  -17.7415 H   0  0  0  0  0  0  0  0  0  0  0  0
  -13.5930   11.8401  -16.3134 H   0  0  0  0  0  0  0  0  0  0  0  0
  -13.7939   13.6154  -16.3676 H   0  0  0  0  0  0  0  0  0  0  0  0
  -11.5585   11.3455  -13.0621 H   0  0  0  0  0  0  0  0  0  0  0  0
  -12.3562   10.5695  -14.4603 H   0  0  0  0  0  0  0  0  0  0  0  0
   -9.9222   10.8229  -14.8043 H   0  0  0  0  0  0  0  0  0  0  0  0
  -10.0666   12.5849  -14.6005 H   0  0  0  0  0  0  0  0  0  0  0  0
   -9.4954   12.5748  -20.3825 H   0  0  0  0  0  0  0  0  0  0  0  0
   -8.3936   11.8593  -19.2195 H   0  0  0  0  0  0  0  0  0  0  0  0
  -10.5844   10.5970  -19.3760 H   0  0  0  0  0  0  0  0  0  0  0  0
  -11.3983   12.0164  -18.9161 H   0  0  0  0  0  0  0  0  0  0  0  0
   -9.6085   15.7987  -17.1999 H   0  0  0  0  0  0  0  0  0  0  0  0
  -11.2661   17.6090  -17.6394 H   0  0  0  0  0  0  0  0  0  0  0  0
  1  2  2  0  0  0  0
  1 17  1  0  0  0  0
  1 19  1  0  0  0  0
  2 10  1  0  0  0  0
  2 20  1  0  0  0  0
  3  4  1  0  0  0  0
  3 14  1  0  0  0  0
  3 21  1  0  0  0  0
  3 22  1  0  0  0  0
  4 15  1  0  0  0  0
  4 23  1  0  0  0  0
  4 24  1  0  0  0  0
  5  6  1  0  0  0  0
  5 15  1  0  0  0  0
  5 25  1  0  0  0  0
  5 26  1  0  0  0  0
  6 14  1  0  0  0  0
  6 27  1  0  0  0  0
  6 28  1  0  0  0  0
  7  8  1  0  0  0  0
  7 16  1  0  0  0  0
  7 29  1  0  0  0  0
  7 30  1  0  0  0  0
  8  9  1  0  0  0  0
  8 31  1  0  0  0  0
  8 32  1  0  0  0  0
  9 13  2  0  0  0  0
  9 14  1  0  0  0  0
 10 11  2  0  0  0  0
 10 16  1  0  0  0  0
 11 12  1  0  0  0  0
 11 33  1  0  0  0  0
 12 17  2  0  0  0  0
 12 34  1  0  0  0  0
 17 18  1  0  0  0  0
M  END
$$$$
