A6N
 OpenBabel04161911033D

 37 39  0  0  0  0  0  0  0  0999 V2000
   -2.4924    5.7607   13.8739 C   0  0  0  0  0  0  0  0  0  0  0  0
   -3.8803    5.6636   14.2118 O   0  0  0  0  0  0  0  0  0  0  0  0
   -4.3286    4.4898   14.7476 C   0  0  0  0  0  0  0  0  0  0  0  0
   -5.6793    4.4523   15.0866 C   0  0  0  0  0  0  0  0  0  0  0  0
   -6.2183    3.3158   15.6841 C   0  0  0  0  0  0  0  0  0  0  0  0
   -5.3940    2.2252   15.9494 C   0  0  0  0  0  0  0  0  0  0  0  0
   -4.0542    2.2394   15.5760 C   0  0  0  0  0  0  0  0  0  0  0  0
   -3.5279    3.3735   14.9652 C   0  0  0  0  0  0  0  0  0  0  0  0
   -2.1189    7.1854   13.7321 C   0  0  0  0  0  0  0  0  0  0  0  0
   -2.2337    8.0074   12.6348 C   0  0  0  0  0  0  0  0  0  0  0  0
   -1.8104    9.2385   13.0824 N   0  3  0  0  0  0  0  0  0  0  0  0
   -1.4357    9.1535   14.3759 N   0  0  0  0  0  0  0  0  0  0  0  0
   -1.6185    7.9056   14.7836 N   0  0  0  0  0  0  0  0  0  0  0  0
   -1.7542   10.4540   12.3756 C   0  0  0  0  0  0  0  0  0  0  0  0
   -1.9036   11.6567   13.0701 C   0  0  0  0  0  0  0  0  0  0  0  0
   -1.9026   12.8604   12.3713 C   0  0  0  0  0  0  0  0  0  0  0  0
   -1.7263   12.8677   10.9884 C   0  0  0  0  0  0  0  0  0  0  0  0
   -1.5541   11.6655   10.3076 C   0  0  0  0  0  0  0  0  0  0  0  0
   -1.5750   10.4585   10.9958 C   0  0  0  0  0  0  0  0  0  0  0  0
   -6.0565    0.8653   16.8701 S   0  0  0  0  0  0  0  0  0  0  0  0
   -7.4887    0.8490   16.6614 O   0  0  0  0  0  0  0  0  0  0  0  0
   -5.4619    0.9068   18.1717 O   0  0  0  0  0  0  0  0  0  0  0  0
   -5.4674   -0.4924   16.1195 N   0  0  0  0  0  0  0  0  0  0  0  0
   -2.3140    5.2417   12.9204 H   0  0  0  0  0  0  0  0  0  0  0  0
   -1.8549    5.3142   14.6469 H   0  0  0  0  0  0  0  0  0  0  0  0
   -6.3150    5.3119   14.8943 H   0  0  0  0  0  0  0  0  0  0  0  0
   -7.2703    3.2915   15.9600 H   0  0  0  0  0  0  0  0  0  0  0  0
   -3.4151    1.3885   15.7752 H   0  0  0  0  0  0  0  0  0  0  0  0
   -2.4854    3.3750   14.6776 H   0  0  0  0  0  0  0  0  0  0  0  0
   -2.6119    7.7928   11.6521 H   0  0  0  0  0  0  0  0  0  0  0  0
   -2.0586   11.6618   14.1449 H   0  0  0  0  0  0  0  0  0  0  0  0
   -2.0353   13.7975   12.9029 H   0  0  0  0  0  0  0  0  0  0  0  0
   -1.7208   13.8081   10.4497 H   0  0  0  0  0  0  0  0  0  0  0  0
   -1.4101   11.6789    9.2313 H   0  0  0  0  0  0  0  0  0  0  0  0
   -1.4239    9.5320   10.4522 H   0  0  0  0  0  0  0  0  0  0  0  0
   -5.7333   -1.3965   16.5100 H   0  0  0  0  0  0  0  0  0  0  0  0
   -4.8645   -0.4261   15.3141 H   0  0  0  0  0  0  0  0  0  0  0  0
  1  2  1  0  0  0  0
  1  9  1  0  0  0  0
  1 24  1  0  0  0  0
  1 25  1  0  0  0  0
  2  3  1  0  0  0  0
  3  4  2  0  0  0  0
  3  8  1  0  0  0  0
  4  5  1  0  0  0  0
  4 26  1  0  0  0  0
  5  6  2  0  0  0  0
  5 27  1  0  0  0  0
  6  7  1  0  0  0  0
  6 20  1  0  0  0  0
  7  8  2  0  0  0  0
  7 28  1  0  0  0  0
  8 29  1  0  0  0  0
  9 10  1  0  0  0  0
  9 13  2  0  0  0  0
 10 11  2  0  0  0  0
 10 30  1  0  0  0  0
 11 12  1  0  0  0  0
 11 14  1  0  0  0  0
 12 13  1  0  0  0  0
 14 15  2  0  0  0  0
 14 19  1  0  0  0  0
 15 16  1  0  0  0  0
 15 31  1  0  0  0  0
 16 17  2  0  0  0  0
 16 32  1  0  0  0  0
 17 18  1  0  0  0  0
 17 33  1  0  0  0  0
 18 19  2  0  0  0  0
 18 34  1  0  0  0  0
 19 35  1  0  0  0  0
 20 21  2  0  0  0  0
 20 22  2  0  0  0  0
 20 23  1  0  0  0  0
 23 36  1  0  0  0  0
 23 37  1  0  0  0  0
M  CHG  1  11   1
M  END
$$$$
