A7K
 OpenBabel04161911423D

 37 38  0  0  0  0  0  0  0  0999 V2000
  -12.1307   14.9450  -16.7464 C   0  0  0  0  0  0  0  0  0  0  0  0
  -11.8151   16.3634  -20.3652 C   0  0  0  0  0  0  0  0  0  0  0  0
  -11.6733   15.8994  -17.8725 C   0  0  0  0  0  0  0  0  0  0  0  0
  -12.2230   15.4490  -19.2223 C   0  0  0  0  0  0  0  0  0  0  0  0
  -11.7739   14.0072  -19.4890 C   0  0  0  0  0  0  0  0  0  0  0  0
  -12.3374   13.1076  -18.3929 C   0  0  0  0  0  0  0  0  0  0  0  0
   -9.1583   12.5207  -17.5567 C   0  0  0  0  0  0  0  0  0  0  0  0
  -11.3105   12.5762  -16.2170 C   0  0  0  0  0  0  0  0  0  0  0  0
  -10.0364   12.0325  -16.4439 C   0  0  0  0  0  0  0  0  0  0  0  0
   -9.5515   11.0421  -15.5909 C   0  0  0  0  0  0  0  0  0  0  0  0
  -12.0703   12.1202  -15.1438 C   0  0  0  0  0  0  0  0  0  0  0  0
  -11.5749   11.1274  -14.3072 C   0  0  0  0  0  0  0  0  0  0  0  0
  -10.3119   10.5898  -14.5200 C   0  0  0  0  0  0  0  0  0  0  0  0
   -9.3407   11.7897  -18.8367 N   0  3  0  0  0  0  0  0  0  0  0  0
  -11.7889   13.5542  -17.1207 N   0  0  0  0  0  0  0  0  0  0  0  0
  -12.1488   15.6771  -21.5544 O   0  0  0  0  0  0  0  0  0  0  0  0
  -13.2127   15.0723  -16.6199 H   0  0  0  0  0  0  0  0  0  0  0  0
  -11.6205   15.2411  -15.8307 H   0  0  0  0  0  0  0  0  0  0  0  0
  -10.7406   16.5731  -20.3445 H   0  0  0  0  0  0  0  0  0  0  0  0
  -12.3694   17.3069  -20.3094 H   0  0  0  0  0  0  0  0  0  0  0  0
  -10.5750   15.9187  -17.9133 H   0  0  0  0  0  0  0  0  0  0  0  0
  -12.0184   16.9192  -17.6689 H   0  0  0  0  0  0  0  0  0  0  0  0
  -13.3166   15.4480  -19.1814 H   0  0  0  0  0  0  0  0  0  0  0  0
  -10.6787   13.9706  -19.5042 H   0  0  0  0  0  0  0  0  0  0  0  0
  -12.1318   13.6517  -20.4570 H   0  0  0  0  0  0  0  0  0  0  0  0
  -12.0384   12.0753  -18.5977 H   0  0  0  0  0  0  0  0  0  0  0  0
  -13.4244   13.1433  -18.4211 H   0  0  0  0  0  0  0  0  0  0  0  0
   -8.0989   12.3881  -17.2973 H   0  0  0  0  0  0  0  0  0  0  0  0
   -9.3198   13.5799  -17.7512 H   0  0  0  0  0  0  0  0  0  0  0  0
   -8.5515   10.6227  -15.7264 H   0  0  0  0  0  0  0  0  0  0  0  0
  -13.0618   12.5090  -14.9565 H   0  0  0  0  0  0  0  0  0  0  0  0
  -12.1747   10.7549  -13.4672 H   0  0  0  0  0  0  0  0  0  0  0  0
   -9.9247    9.8282  -13.8492 H   0  0  0  0  0  0  0  0  0  0  0  0
   -8.7458   12.1674  -19.5776 H   0  0  0  0  0  0  0  0  0  0  0  0
   -9.1822   10.7879  -18.7244 H   0  0  0  0  0  0  0  0  0  0  0  0
  -11.9199   16.2513  -22.2959 H   0  0  0  0  0  0  0  0  0  0  0  0
  -10.3110   11.8992  -19.1591 H   0  0  0  0  0  0  0  0  0  0  0  0
  1  3  1  0  0  0  0
  1 15  1  0  0  0  0
  1 17  1  0  0  0  0
  1 18  1  0  0  0  0
  2  4  1  0  0  0  0
  2 16  1  0  0  0  0
  2 19  1  0  0  0  0
  2 20  1  0  0  0  0
  3  4  1  0  0  0  0
  3 21  1  0  0  0  0
  3 22  1  0  0  0  0
  4  5  1  0  0  0  0
  4 23  1  0  0  0  0
  5  6  1  0  0  0  0
  5 24  1  0  0  0  0
  5 25  1  0  0  0  0
  6 15  1  0  0  0  0
  6 26  1  0  0  0  0
  6 27  1  0  0  0  0
  7  9  1  0  0  0  0
  7 14  1  0  0  0  0
  7 28  1  0  0  0  0
  7 29  1  0  0  0  0
  8  9  2  0  0  0  0
  8 11  1  0  0  0  0
  8 15  1  0  0  0  0
  9 10  1  0  0  0  0
 10 13  2  0  0  0  0
 10 30  1  0  0  0  0
 11 12  2  0  0  0  0
 11 31  1  0  0  0  0
 12 13  1  0  0  0  0
 12 32  1  0  0  0  0
 13 33  1  0  0  0  0
 14 34  1  0  0  0  0
 14 35  1  0  0  0  0
 14 37  1  0  0  0  0
 16 36  1  0  0  0  0
M  CHG  1  14   1
M  END
$$$$
