ACP
 OpenBabel04161910123D

 45 47  0  0  1  0  0  0  0  0999 V2000
   19.7450    3.3130    2.3853 P   0  0  0  0  0  0  0  0  0  0  0  0
   18.5850    3.2999    1.3874 O   0  0  0  0  0  0  0  0  0  0  0  0
   21.1355    3.4743    1.8034 O   0  0  0  0  0  0  0  0  0  0  0  0
   19.4849    4.3232    3.5269 O   0  0  0  0  0  0  0  0  0  0  0  0
   20.3335    0.1033    2.5500 P   0  0  1  0  0  0  0  0  0  0  0  0
   20.0936    0.0261    1.0600 O   0  0  0  0  0  0  0  0  0  0  0  0
   21.7199   -0.1886    3.1346 O   0  0  0  0  0  0  0  0  0  0  0  0
   19.6919    1.6583    3.2979 C   0  0  0  0  0  0  0  0  0  0  0  0
   18.7964   -2.2940    2.4832 P   0  0  1  0  0  0  0  0  0  0  0  0
   17.5639   -2.0196    1.6441 O   0  0  0  0  0  0  0  0  0  0  0  0
   19.8900   -3.2472    2.0298 O   0  0  0  0  0  0  0  0  0  0  0  0
   19.3431   -0.9868    3.2584 O   0  0  0  0  0  0  0  0  0  0  0  0
   18.1350   -3.0560    3.7663 O   0  0  0  0  0  0  0  0  0  0  0  0
   18.9418   -3.7825    4.6630 C   0  0  0  0  0  0  0  0  0  0  0  0
   17.9504   -4.4056    5.6390 C   0  0  1  0  0  0  0  0  0  0  0  0
   17.1425   -5.3994    4.9491 O   0  0  0  0  0  0  0  0  0  0  0  0
   18.5845   -5.1199    6.8410 C   0  0  1  0  0  0  0  0  0  0  0  0
   17.9073   -4.7284    8.0521 O   0  0  0  0  0  0  0  0  0  0  0  0
   18.2992   -6.5969    6.5793 C   0  0  1  0  0  0  0  0  0  0  0  0
   18.2357   -7.3683    7.7850 O   0  0  0  0  0  0  0  0  0  0  0  0
   16.9662   -6.4955    5.8358 C   0  0  2  0  0  0  0  0  0  0  0  0
   16.6312   -7.6669    5.0714 N   0  3  0  0  0  0  0  0  0  0  0  0
   17.3311   -8.2380    4.0487 C   0  0  0  0  0  0  0  0  0  0  0  0
   16.7595   -9.3465    3.6074 N   0  0  0  0  0  0  0  0  0  0  0  0
   15.5843   -9.4612    4.3446 C   0  0  0  0  0  0  0  0  0  0  0  0
   14.5371  -10.3782    4.3560 C   0  0  0  0  0  0  0  0  0  0  0  0
   14.5250  -11.5285    3.5625 N   0  0  0  0  0  0  0  0  0  0  0  0
   13.5171  -10.2157    5.2288 N   0  0  0  0  0  0  0  0  0  0  0  0
   13.5698   -9.1484    6.0593 C   0  0  0  0  0  0  0  0  0  0  0  0
   14.5285   -8.2300    6.1771 N   0  0  0  0  0  0  0  0  0  0  0  0
   15.5046   -8.4217    5.2685 C   0  0  0  0  0  0  0  0  0  0  0  0
   18.6439    1.5249    3.5972 H   0  0  0  0  0  0  0  0  0  0  0  0
   20.2405    1.8209    4.2423 H   0  0  0  0  0  0  0  0  0  0  0  0
   19.6297   -3.1046    5.1755 H   0  0  0  0  0  0  0  0  0  0  0  0
   19.5091   -4.5628    4.1390 H   0  0  0  0  0  0  0  0  0  0  0  0
   17.2436   -3.6320    5.9796 H   0  0  0  0  0  0  0  0  0  0  0  0
   19.6451   -4.9066    6.9801 H   0  0  0  0  0  0  0  0  0  0  0  0
   18.2392   -5.2988    8.7629 H   0  0  0  0  0  0  0  0  0  0  0  0
   19.0804   -7.0216    5.9372 H   0  0  0  0  0  0  0  0  0  0  0  0
   19.1082   -7.3090    8.2057 H   0  0  0  0  0  0  0  0  0  0  0  0
   16.1457   -6.2681    6.5201 H   0  0  0  0  0  0  0  0  0  0  0  0
   18.2568   -7.8081    3.6645 H   0  0  0  0  0  0  0  0  0  0  0  0
   13.6578  -12.0341    3.5433 H   0  0  0  0  0  0  0  0  0  0  0  0
   15.1905  -11.5619    2.8020 H   0  0  0  0  0  0  0  0  0  0  0  0
   12.7269   -9.0342    6.7327 H   0  0  0  0  0  0  0  0  0  0  0  0
  1  2  2  0  0  0  0
  1  3  1  0  0  0  0
  1  4  1  0  0  0  0
  1  8  1  0  0  0  0
  5  6  2  6  0  0  0
  5  7  1  0  0  0  0
  5  8  1  0  0  0  0
  5 12  1  0  0  0  0
  8 32  1  0  0  0  0
  8 33  1  0  0  0  0
  9 10  2  6  0  0  0
  9 11  1  0  0  0  0
  9 12  1  0  0  0  0
  9 13  1  0  0  0  0
 13 14  1  0  0  0  0
 14 15  1  0  0  0  0
 14 34  1  0  0  0  0
 14 35  1  0  0  0  0
 15 16  1  0  0  0  0
 15 17  1  0  0  0  0
 15 36  1  1  0  0  0
 16 21  1  0  0  0  0
 17 18  1  0  0  0  0
 17 19  1  0  0  0  0
 17 37  1  1  0  0  0
 18 38  1  0  0  0  0
 19 20  1  0  0  0  0
 19 21  1  0  0  0  0
 19 39  1  6  0  0  0
 20 40  1  0  0  0  0
 21 22  1  0  0  0  0
 21 41  1  1  0  0  0
 22 23  2  0  0  0  0
 22 31  1  0  0  0  0
 23 24  1  0  0  0  0
 23 42  1  0  0  0  0
 24 25  1  0  0  0  0
 25 26  2  0  0  0  0
 25 31  1  0  0  0  0
 26 27  1  0  0  0  0
 26 28  1  0  0  0  0
 27 43  1  0  0  0  0
 27 44  1  0  0  0  0
 28 29  2  0  0  0  0
 29 30  1  0  0  0  0
 29 45  1  0  0  0  0
 30 31  2  0  0  0  0
M  CHG  1  22   1
M  END
$$$$
