AMP
 OpenBabel04161910133D

 35 37  0  0  1  0  0  0  0  0999 V2000
   13.8488   41.2673   10.4126 P   0  0  0  0  0  0  0  0  0  0  0  0
   12.7267   40.9939    9.4237 O   0  0  0  0  0  0  0  0  0  0  0  0
   15.1409   40.5281   10.1024 O   0  0  0  0  0  0  0  0  0  0  0  0
   13.4414   41.2797   11.8760 O   0  0  0  0  0  0  0  0  0  0  0  0
   14.1937   42.8313   10.1119 O   0  0  0  0  0  0  0  0  0  0  0  0
   15.4855   43.3250   10.3712 C   0  0  0  0  0  0  0  0  0  0  0  0
   16.0240   44.0589    9.1247 C   0  0  1  0  0  0  0  0  0  0  0  0
   17.0480   43.2561    8.4735 O   0  0  0  0  0  0  0  0  0  0  0  0
   14.9817   44.4356    8.0577 C   0  0  1  0  0  0  0  0  0  0  0  0
   14.5561   45.8171    8.1230 O   0  0  0  0  0  0  0  0  0  0  0  0
   15.6709   44.1504    6.7177 C   0  0  1  0  0  0  0  0  0  0  0  0
   15.8881   45.3906    6.0008 O   0  0  0  0  0  0  0  0  0  0  0  0
   17.0159   43.4965    7.0587 C   0  0  2  0  0  0  0  0  0  0  0  0
   17.3760   42.2922    6.3010 N   0  3  0  0  0  0  0  0  0  0  0  0
   17.0741   40.9871    6.6231 C   0  0  0  0  0  0  0  0  0  0  0  0
   17.5844   40.1261    5.7522 N   0  0  0  0  0  0  0  0  0  0  0  0
   18.2598   40.8914    4.8351 C   0  0  0  0  0  0  0  0  0  0  0  0
   19.0226   40.5398    3.7024 C   0  0  0  0  0  0  0  0  0  0  0  0
   19.2317   39.2392    3.2726 N   0  0  0  0  0  0  0  0  0  0  0  0
   19.5956   41.5313    2.9788 N   0  0  0  0  0  0  0  0  0  0  0  0
   19.4068   42.7990    3.4036 C   0  0  0  0  0  0  0  0  0  0  0  0
   18.7166   43.2585    4.4660 N   0  0  0  0  0  0  0  0  0  0  0  0
   18.1554   42.2388    5.1560 C   0  0  0  0  0  0  0  0  0  0  0  0
   16.1846   42.5449   10.6872 H   0  0  0  0  0  0  0  0  0  0  0  0
   15.3943   44.0233   11.2113 H   0  0  0  0  0  0  0  0  0  0  0  0
   16.5348   44.9652    9.4805 H   0  0  0  0  0  0  0  0  0  0  0  0
   14.0722   43.8352    8.1235 H   0  0  0  0  0  0  0  0  0  0  0  0
   15.3501   46.3660    8.0147 H   0  0  0  0  0  0  0  0  0  0  0  0
   15.0383   43.5173    6.0875 H   0  0  0  0  0  0  0  0  0  0  0  0
   15.0059   45.8086    5.9572 H   0  0  0  0  0  0  0  0  0  0  0  0
   17.8237   44.2134    6.8645 H   0  0  0  0  0  0  0  0  0  0  0  0
   16.4905   40.7278    7.5026 H   0  0  0  0  0  0  0  0  0  0  0  0
   19.7534   39.0875    2.4358 H   0  0  0  0  0  0  0  0  0  0  0  0
   18.7833   38.4936    3.7880 H   0  0  0  0  0  0  0  0  0  0  0  0
   19.8927   43.5593    2.7925 H   0  0  0  0  0  0  0  0  0  0  0  0
  1  2  2  0  0  0  0
  1  3  1  0  0  0  0
  1  4  1  0  0  0  0
  1  5  1  0  0  0  0
  5  6  1  0  0  0  0
  6  7  1  0  0  0  0
  6 24  1  0  0  0  0
  6 25  1  0  0  0  0
  7  8  1  0  0  0  0
  7  9  1  0  0  0  0
  7 26  1  1  0  0  0
  8 13  1  0  0  0  0
  9 10  1  0  0  0  0
  9 11  1  0  0  0  0
  9 27  1  1  0  0  0
 10 28  1  0  0  0  0
 11 12  1  0  0  0  0
 11 13  1  0  0  0  0
 11 29  1  6  0  0  0
 12 30  1  0  0  0  0
 13 14  1  0  0  0  0
 13 31  1  6  0  0  0
 14 15  2  0  0  0  0
 14 23  1  0  0  0  0
 15 16  1  0  0  0  0
 15 32  1  0  0  0  0
 16 17  1  0  0  0  0
 17 18  2  0  0  0  0
 17 23  1  0  0  0  0
 18 19  1  0  0  0  0
 18 20  1  0  0  0  0
 19 33  1  0  0  0  0
 19 34  1  0  0  0  0
 20 21  2  0  0  0  0
 21 22  1  0  0  0  0
 21 35  1  0  0  0  0
 22 23  2  0  0  0  0
M  CHG  1  14   1
M  END
$$$$
