ANV
 OpenBabel04161911023D

 37 39  0  0  0  0  0  0  0  0999 V2000
   -0.7832    7.3240   12.2653 C   0  0  0  0  0  0  0  0  0  0  0  0
   -0.2162    8.1999   13.2430 O   0  0  0  0  0  0  0  0  0  0  0  0
   -0.7280    9.4636   13.3498 C   0  0  0  0  0  0  0  0  0  0  0  0
   -0.1587   10.2380   14.3665 C   0  0  0  0  0  0  0  0  0  0  0  0
   -0.5672   11.5570   14.5659 C   0  0  0  0  0  0  0  0  0  0  0  0
   -1.5520   12.1106   13.7481 C   0  0  0  0  0  0  0  0  0  0  0  0
   -2.1362   11.3404   12.7493 C   0  0  0  0  0  0  0  0  0  0  0  0
   -1.7276   10.0185   12.5518 C   0  0  0  0  0  0  0  0  0  0  0  0
   -1.9791    6.6029   12.7766 C   0  0  0  0  0  0  0  0  0  0  0  0
   -2.0446    5.4352   13.5033 C   0  0  0  0  0  0  0  0  0  0  0  0
   -3.3827    5.2434   13.7471 N   0  3  0  0  0  0  0  0  0  0  0  0
   -4.0922    6.2500   13.1821 N   0  0  0  0  0  0  0  0  0  0  0  0
   -3.2455    7.0732   12.5773 N   0  0  0  0  0  0  0  0  0  0  0  0
   -4.0080    4.1844   14.4538 C   0  0  0  0  0  0  0  0  0  0  0  0
   -3.2492    3.1151   14.9400 C   0  0  0  0  0  0  0  0  0  0  0  0
   -3.8649    2.0883   15.6529 C   0  0  0  0  0  0  0  0  0  0  0  0
   -5.2492    2.1236   15.8756 C   0  0  0  0  0  0  0  0  0  0  0  0
   -6.0159    3.1819   15.3851 C   0  0  0  0  0  0  0  0  0  0  0  0
   -5.3957    4.2141   14.6751 C   0  0  0  0  0  0  0  0  0  0  0  0
   -5.9843    0.8395   16.8604 S   0  0  0  0  0  0  0  0  0  0  0  0
   -5.4709    0.9751   18.1934 O   0  0  0  0  0  0  0  0  0  0  0  0
   -7.4051    0.8253   16.5693 O   0  0  0  0  0  0  0  0  0  0  0  0
   -5.3386   -0.5672   16.2266 N   0  0  0  0  0  0  0  0  0  0  0  0
   -0.0076    6.5795   12.0397 H   0  0  0  0  0  0  0  0  0  0  0  0
   -0.9726    7.8242   11.3114 H   0  0  0  0  0  0  0  0  0  0  0  0
    0.6049    9.8082   15.0110 H   0  0  0  0  0  0  0  0  0  0  0  0
   -0.1197   12.1503   15.3585 H   0  0  0  0  0  0  0  0  0  0  0  0
   -1.8657   13.1406   13.8946 H   0  0  0  0  0  0  0  0  0  0  0  0
   -2.9072   11.7671   12.1110 H   0  0  0  0  0  0  0  0  0  0  0  0
   -2.2230    9.4633   11.7593 H   0  0  0  0  0  0  0  0  0  0  0  0
   -1.2694    4.7819   13.8673 H   0  0  0  0  0  0  0  0  0  0  0  0
   -2.1752    3.0436   14.7899 H   0  0  0  0  0  0  0  0  0  0  0  0
   -3.2665    1.2739   16.0578 H   0  0  0  0  0  0  0  0  0  0  0  0
   -7.0880    3.2289   15.5772 H   0  0  0  0  0  0  0  0  0  0  0  0
   -6.0045    5.0471   14.3204 H   0  0  0  0  0  0  0  0  0  0  0  0
   -5.8874   -1.3896   16.4644 H   0  0  0  0  0  0  0  0  0  0  0  0
   -4.9503   -0.5233   15.2893 H   0  0  0  0  0  0  0  0  0  0  0  0
  1  2  1  0  0  0  0
  1  9  1  0  0  0  0
  1 24  1  0  0  0  0
  1 25  1  0  0  0  0
  2  3  1  0  0  0  0
  3  4  2  0  0  0  0
  3  8  1  0  0  0  0
  4  5  1  0  0  0  0
  4 26  1  0  0  0  0
  5  6  2  0  0  0  0
  5 27  1  0  0  0  0
  6  7  1  0  0  0  0
  6 28  1  0  0  0  0
  7  8  2  0  0  0  0
  7 29  1  0  0  0  0
  8 30  1  0  0  0  0
  9 10  1  0  0  0  0
  9 13  2  0  0  0  0
 10 11  2  0  0  0  0
 10 31  1  0  0  0  0
 11 12  1  0  0  0  0
 11 14  1  0  0  0  0
 12 13  1  0  0  0  0
 14 15  2  0  0  0  0
 14 19  1  0  0  0  0
 15 16  1  0  0  0  0
 15 32  1  0  0  0  0
 16 17  2  0  0  0  0
 16 33  1  0  0  0  0
 17 18  1  0  0  0  0
 17 20  1  0  0  0  0
 18 19  2  0  0  0  0
 18 34  1  0  0  0  0
 19 35  1  0  0  0  0
 20 21  2  0  0  0  0
 20 22  2  0  0  0  0
 20 23  1  0  0  0  0
 23 36  1  0  0  0  0
 23 37  1  0  0  0  0
M  CHG  1  11   1
M  END
$$$$
