APR
 OpenBabel04161909553D

 57 60  0  0  1  0  0  0  0  0999 V2000
    4.3307   19.0030   75.6379 N   0  0  0  0  0  0  0  0  0  0  0  0
    3.8790   17.9224   74.9613 C   0  0  0  0  0  0  0  0  0  0  0  0
    2.9256   17.8708   74.0030 N   0  0  0  0  0  0  0  0  0  0  0  0
    2.4658   19.0978   73.7323 C   0  0  0  0  0  0  0  0  0  0  0  0
    2.8071   20.2912   74.3476 C   0  0  0  0  0  0  0  0  0  0  0  0
    3.7973   20.2145   75.3532 C   0  0  0  0  0  0  0  0  0  0  0  0
    4.2202   21.2997   76.0933 N   0  0  0  0  0  0  0  0  0  0  0  0
    2.0746   21.3382   73.8543 N   0  0  0  0  0  0  0  0  0  0  0  0
    1.3350   20.8036   72.8965 C   0  0  0  0  0  0  0  0  0  0  0  0
    1.5436   19.4592   72.7757 N   0  3  0  0  0  0  0  0  0  0  0  0
    0.9150   18.5119   71.8762 C   0  0  1  0  0  0  0  0  0  0  0  0
   -0.3164   18.9974   71.1188 C   0  0  2  0  0  0  0  0  0  0  0  0
   -1.5265   18.9273   71.8870 O   0  0  0  0  0  0  0  0  0  0  0  0
   -0.3128   18.0239   69.9465 C   0  0  2  0  0  0  0  0  0  0  0  0
   -0.8838   16.7773   70.4025 O   0  0  0  0  0  0  0  0  0  0  0  0
    1.8807   18.0781   70.8942 O   0  0  0  0  0  0  0  0  0  0  0  0
    1.1821   17.8416   69.6391 C   0  0  2  0  0  0  0  0  0  0  0  0
    1.6699   18.8198   68.5508 C   0  0  0  0  0  0  0  0  0  0  0  0
    1.0227   20.0449   68.8071 O   0  0  0  0  0  0  0  0  0  0  0  0
    1.2535   21.4243   68.0008 P   0  0  1  0  0  0  0  0  0  0  0  0
   -0.1273   21.9614   67.7305 O   0  0  0  0  0  0  0  0  0  0  0  0
    2.1975   22.2338   68.8634 O   0  0  0  0  0  0  0  0  0  0  0  0
    2.0371   20.9613   66.6959 O   0  0  0  0  0  0  0  0  0  0  0  0
    1.6076   20.7021   65.1808 P   0  0  1  0  0  0  0  0  0  0  0  0
    2.8549   20.2787   64.4208 O   0  0  0  0  0  0  0  0  0  0  0  0
    0.3887   19.8155   65.0945 O   0  0  0  0  0  0  0  0  0  0  0  0
    1.2368   22.1961   64.6567 O   0  0  0  0  0  0  0  0  0  0  0  0
    2.3031   23.0805   64.3530 C   0  0  0  0  0  0  0  0  0  0  0  0
    1.1758   24.9595   65.4596 O   0  0  0  0  0  0  0  0  0  0  0  0
    2.0224   26.1777   67.2953 O   0  0  0  0  0  0  0  0  0  0  0  0
    1.8790   26.1164   65.8911 C   0  0  1  0  0  0  0  0  0  0  0  0
    3.8178   27.3915   65.0941 O   0  0  0  0  0  0  0  0  0  0  0  0
    3.2182   26.0984   65.1682 C   0  0  2  0  0  0  0  0  0  0  0  0
    2.2551   26.5555   62.9733 O   0  0  0  0  0  0  0  0  0  0  0  0
    2.8135   25.5257   63.8152 C   0  0  2  0  0  0  0  0  0  0  0  0
    1.7418   24.4988   64.2039 C   0  0  1  0  0  0  0  0  0  0  0  0
    4.3303   16.9755   75.2240 H   0  0  0  0  0  0  0  0  0  0  0  0
    3.9618   22.2127   75.7420 H   0  0  0  0  0  0  0  0  0  0  0  0
    5.0595   21.1564   76.6327 H   0  0  0  0  0  0  0  0  0  0  0  0
    0.6429   21.3621   72.2703 H   0  0  0  0  0  0  0  0  0  0  0  0
    0.6423   17.6443   72.4956 H   0  0  0  0  0  0  0  0  0  0  0  0
   -0.1983   20.0272   70.7797 H   0  0  0  0  0  0  0  0  0  0  0  0
   -1.6337   17.9975   72.1524 H   0  0  0  0  0  0  0  0  0  0  0  0
   -0.8997   18.3648   69.0880 H   0  0  0  0  0  0  0  0  0  0  0  0
   -1.8457   16.9316   70.3865 H   0  0  0  0  0  0  0  0  0  0  0  0
    1.4180   16.8114   69.3494 H   0  0  0  0  0  0  0  0  0  0  0  0
    1.3584   18.4444   67.5693 H   0  0  0  0  0  0  0  0  0  0  0  0
    2.7571   18.9405   68.5740 H   0  0  0  0  0  0  0  0  0  0  0  0
    2.7491   22.7721   63.3963 H   0  0  0  0  0  0  0  0  0  0  0  0
    3.0718   23.0349   65.1295 H   0  0  0  0  0  0  0  0  0  0  0  0
    2.4451   25.3394   67.5628 H   0  0  0  0  0  0  0  0  0  0  0  0
    1.2842   26.9894   65.5983 H   0  0  0  0  0  0  0  0  0  0  0  0
    4.6034   27.2992   64.5316 H   0  0  0  0  0  0  0  0  0  0  0  0
    3.9137   25.4247   65.6817 H   0  0  0  0  0  0  0  0  0  0  0  0
    1.4328   26.8625   63.3964 H   0  0  0  0  0  0  0  0  0  0  0  0
    3.6568   25.1048   63.2605 H   0  0  0  0  0  0  0  0  0  0  0  0
    0.9193   24.4908   63.4791 H   0  0  0  0  0  0  0  0  0  0  0  0
  1  2  2  0  0  0  0
  1  6  1  0  0  0  0
  2  3  1  0  0  0  0
  2 37  1  0  0  0  0
  3  4  2  0  0  0  0
  4  5  1  0  0  0  0
  4 10  1  0  0  0  0
  5  6  2  0  0  0  0
  5  8  1  0  0  0  0
  6  7  1  0  0  0  0
  7 38  1  0  0  0  0
  7 39  1  0  0  0  0
  8  9  1  0  0  0  0
  9 10  2  0  0  0  0
  9 40  1  0  0  0  0
 10 11  1  0  0  0  0
 11 12  1  0  0  0  0
 11 16  1  0  0  0  0
 11 41  1  1  0  0  0
 12 13  1  0  0  0  0
 12 14  1  0  0  0  0
 12 42  1  6  0  0  0
 13 43  1  0  0  0  0
 14 15  1  0  0  0  0
 14 17  1  0  0  0  0
 14 44  1  6  0  0  0
 15 45  1  0  0  0  0
 16 17  1  0  0  0  0
 17 18  1  0  0  0  0
 17 46  1  6  0  0  0
 18 19  1  0  0  0  0
 18 47  1  0  0  0  0
 18 48  1  0  0  0  0
 20 19  1  1  0  0  0
 20 21  2  0  0  0  0
 20 22  1  0  0  0  0
 20 23  1  0  0  0  0
 24 23  1  1  0  0  0
 24 25  2  0  0  0  0
 24 26  1  0  0  0  0
 24 27  1  0  0  0  0
 27 28  1  0  0  0  0
 28 36  1  0  0  0  0
 28 49  1  0  0  0  0
 28 50  1  0  0  0  0
 29 31  1  0  0  0  0
 29 36  1  0  0  0  0
 30 31  1  0  0  0  0
 30 51  1  0  0  0  0
 31 33  1  0  0  0  0
 31 52  1  6  0  0  0
 32 33  1  0  0  0  0
 32 53  1  0  0  0  0
 33 35  1  0  0  0  0
 33 54  1  1  0  0  0
 34 35  1  0  0  0  0
 34 55  1  0  0  0  0
 35 36  1  0  0  0  0
 35 56  1  6  0  0  0
 36 57  1  6  0  0  0
M  CHG  1  10   1
M  END
$$$$
