ATP
 OpenBabel04161909513D

 43 45  0  0  1  0  0  0  0  0999 V2000
  -35.7481    3.2569   15.7258 P   0  0  0  0  0  0  0  0  0  0  0  0
  -36.5746    4.3451   15.0591 O   0  0  0  0  0  0  0  0  0  0  0  0
  -35.0193    3.6740   17.0031 O   0  0  0  0  0  0  0  0  0  0  0  0
  -36.5816    1.9899   15.9509 O   0  0  0  0  0  0  0  0  0  0  0  0
  -33.7482    3.7187   13.6464 P   0  0  2  0  0  0  0  0  0  0  0  0
  -32.3112    3.1887   13.5808 O   0  0  0  0  0  0  0  0  0  0  0  0
  -33.8919    5.2114   13.8708 O   0  0  0  0  0  0  0  0  0  0  0  0
  -34.5730    2.8074   14.6842 O   0  0  0  0  0  0  0  0  0  0  0  0
  -34.1999    3.7659   10.7610 P   0  0  1  0  0  0  0  0  0  0  0  0
  -33.9133    2.5495    9.8898 O   0  0  0  0  0  0  0  0  0  0  0  0
  -35.2730    4.7062   10.2579 O   0  0  0  0  0  0  0  0  0  0  0  0
  -34.4728    3.2881   12.2743 O   0  0  0  0  0  0  0  0  0  0  0  0
  -32.7855    4.5613   10.8523 O   0  0  0  0  0  0  0  0  0  0  0  0
  -32.7415    5.9652   10.6882 C   0  0  0  0  0  0  0  0  0  0  0  0
  -31.7296    6.5426   11.6780 C   0  0  1  0  0  0  0  0  0  0  0  0
  -30.3595    6.2699   11.2213 O   0  0  0  0  0  0  0  0  0  0  0  0
  -31.7722    8.0579   11.8005 C   0  0  1  0  0  0  0  0  0  0  0  0
  -32.8124    8.5628   12.6032 O   0  0  0  0  0  0  0  0  0  0  0  0
  -30.3960    8.3540   12.3895 C   0  0  1  0  0  0  0  0  0  0  0  0
  -30.3376    8.2069   13.8112 O   0  0  0  0  0  0  0  0  0  0  0  0
  -29.5079    7.3207   11.7145 C   0  0  2  0  0  0  0  0  0  0  0  0
  -28.7922    7.9349   10.5899 N   0  3  0  0  0  0  0  0  0  0  0  0
  -29.2082    7.9357    9.2753 C   0  0  0  0  0  0  0  0  0  0  0  0
  -28.4146    8.7017    8.5170 N   0  0  0  0  0  0  0  0  0  0  0  0
  -27.4663    9.2014    9.3898 C   0  0  0  0  0  0  0  0  0  0  0  0
  -26.3353   10.0673    9.1977 C   0  0  0  0  0  0  0  0  0  0  0  0
  -25.9773   10.6078    7.9801 N   0  0  0  0  0  0  0  0  0  0  0  0
  -25.5984   10.3925   10.3003 N   0  0  0  0  0  0  0  0  0  0  0  0
  -25.9600    9.9117   11.5038 C   0  0  0  0  0  0  0  0  0  0  0  0
  -26.9988    9.0975   11.7839 N   0  0  0  0  0  0  0  0  0  0  0  0
  -27.6936    8.7627   10.6823 C   0  0  0  0  0  0  0  0  0  0  0  0
  -33.7207    6.4356   10.8131 H   0  0  0  0  0  0  0  0  0  0  0  0
  -32.3989    6.1409    9.6619 H   0  0  0  0  0  0  0  0  0  0  0  0
  -31.8841    6.0863   12.6593 H   0  0  0  0  0  0  0  0  0  0  0  0
  -31.8500    8.5207   10.7945 H   0  0  0  0  0  0  0  0  0  0  0  0
  -32.8030    9.5294   12.6202 H   0  0  0  0  0  0  0  0  0  0  0  0
  -30.0778    9.3810   12.1993 H   0  0  0  0  0  0  0  0  0  0  0  0
  -31.1617    8.5893   14.1754 H   0  0  0  0  0  0  0  0  0  0  0  0
  -28.7645    6.8918   12.3952 H   0  0  0  0  0  0  0  0  0  0  0  0
  -30.0544    7.3911    8.9415 H   0  0  0  0  0  0  0  0  0  0  0  0
  -25.1673   11.1919    7.9494 H   0  0  0  0  0  0  0  0  0  0  0  0
  -26.5428   10.3176    7.1700 H   0  0  0  0  0  0  0  0  0  0  0  0
  -25.3430   10.2121   12.3520 H   0  0  0  0  0  0  0  0  0  0  0  0
  1  2  2  0  0  0  0
  1  3  1  0  0  0  0
  1  4  1  0  0  0  0
  1  8  1  0  0  0  0
  5  6  2  6  0  0  0
  5  7  1  0  0  0  0
  5  8  1  0  0  0  0
  5 12  1  0  0  0  0
  9 10  2  6  0  0  0
  9 11  1  0  0  0  0
  9 12  1  0  0  0  0
  9 13  1  0  0  0  0
 13 14  1  0  0  0  0
 14 15  1  0  0  0  0
 14 32  1  0  0  0  0
 14 33  1  0  0  0  0
 15 16  1  0  0  0  0
 15 17  1  0  0  0  0
 15 34  1  1  0  0  0
 16 21  1  0  0  0  0
 17 18  1  0  0  0  0
 17 19  1  0  0  0  0
 17 35  1  6  0  0  0
 18 36  1  0  0  0  0
 19 20  1  0  0  0  0
 19 21  1  0  0  0  0
 19 37  1  6  0  0  0
 20 38  1  0  0  0  0
 21 22  1  0  0  0  0
 21 39  1  1  0  0  0
 22 23  2  0  0  0  0
 22 31  1  0  0  0  0
 23 24  1  0  0  0  0
 23 40  1  0  0  0  0
 24 25  1  0  0  0  0
 25 26  2  0  0  0  0
 25 31  1  0  0  0  0
 26 27  1  0  0  0  0
 26 28  1  0  0  0  0
 27 41  1  0  0  0  0
 27 42  1  0  0  0  0
 28 29  2  0  0  0  0
 29 30  1  0  0  0  0
 29 43  1  0  0  0  0
 30 31  2  0  0  0  0
M  CHG  1  22   1
M  END
$$$$
