B1T
 OpenBabel04161909483D

 25 26  0  0  0  0  0  0  0  0999 V2000
   17.4759   22.9625   -0.3443 O   0  0  0  0  0  0  0  0  0  0  0  0
   16.7901   23.1186    0.8300 C   0  0  0  0  0  0  0  0  0  0  0  0
   16.8252   22.1051    1.7907 C   0  0  0  0  0  0  0  0  0  0  0  0
   17.6950   20.6402    1.5179 Cl  0  0  0  0  0  0  0  0  0  0  0  0
   16.1702   22.2711    3.0131 C   0  0  0  0  0  0  0  0  0  0  0  0
   15.4777   23.4540    3.2667 C   0  0  0  0  0  0  0  0  0  0  0  0
   14.6904   23.6799    4.7793 Cl  0  0  0  0  0  0  0  0  0  0  0  0
   15.4328   24.4670    2.3163 C   0  0  0  0  0  0  0  0  0  0  0  0
   16.0779   24.2997    1.0916 C   0  0  0  0  0  0  0  0  0  0  0  0
   16.0305   25.6317   -0.0893 S   0  0  0  0  0  0  0  0  0  0  0  0
   17.3628   26.7068    0.4482 C   0  0  0  0  0  0  0  0  0  0  0  0
   18.3199   26.3276    1.4004 C   0  0  0  0  0  0  0  0  0  0  0  0
   19.3729   27.1823    1.7244 C   0  0  0  0  0  0  0  0  0  0  0  0
   20.5430   26.6810    2.8813 Cl  0  0  0  0  0  0  0  0  0  0  0  0
   19.4942   28.4213    1.1090 C   0  0  0  0  0  0  0  0  0  0  0  0
   18.5418   28.8188    0.1714 C   0  0  0  0  0  0  0  0  0  0  0  0
   18.7249   30.3607   -0.5798 Cl  0  0  0  0  0  0  0  0  0  0  0  0
   17.4751   27.9700   -0.1542 C   0  0  0  0  0  0  0  0  0  0  0  0
   16.5458   28.3765   -1.0761 O   0  0  0  0  0  0  0  0  0  0  0  0
   17.3666   23.7724   -0.8753 H   0  0  0  0  0  0  0  0  0  0  0  0
   16.2043   21.4849    3.7653 H   0  0  0  0  0  0  0  0  0  0  0  0
   14.9028   25.3920    2.5409 H   0  0  0  0  0  0  0  0  0  0  0  0
   18.2821   25.3649    1.9010 H   0  0  0  0  0  0  0  0  0  0  0  0
   20.3285   29.0751    1.3546 H   0  0  0  0  0  0  0  0  0  0  0  0
   15.8702   27.6794   -1.1561 H   0  0  0  0  0  0  0  0  0  0  0  0
  1  2  1  0  0  0  0
  1 20  1  0  0  0  0
  2  3  2  0  0  0  0
  2  9  1  0  0  0  0
  3  4  1  0  0  0  0
  3  5  1  0  0  0  0
  5  6  2  0  0  0  0
  5 21  1  0  0  0  0
  6  7  1  0  0  0  0
  6  8  1  0  0  0  0
  8  9  2  0  0  0  0
  8 22  1  0  0  0  0
  9 10  1  0  0  0  0
 10 11  1  0  0  0  0
 11 12  2  0  0  0  0
 11 18  1  0  0  0  0
 12 13  1  0  0  0  0
 12 23  1  0  0  0  0
 13 14  1  0  0  0  0
 13 15  2  0  0  0  0
 15 16  1  0  0  0  0
 15 24  1  0  0  0  0
 16 17  1  0  0  0  0
 16 18  2  0  0  0  0
 18 19  1  0  0  0  0
 19 25  1  0  0  0  0
M  END
$$$$
