BC5
 OpenBabel04161909573D

 29 30  0  0  0  0  0  0  0  0999 V2000
   -5.9829    0.9004   16.6109 S   0  0  0  0  0  0  0  0  0  0  0  0
   -5.4130   -0.4485   15.8225 N   0  0  0  0  0  0  0  0  0  0  0  0
   -7.3660    1.0613   16.2269 O   0  0  0  0  0  0  0  0  0  0  0  0
   -5.5613    0.7730   17.9915 O   0  0  0  0  0  0  0  0  0  0  0  0
   -5.0526    2.2289   15.8940 C   0  0  0  0  0  0  0  0  0  0  0  0
   -5.7278    3.3942   15.5251 C   0  0  0  0  0  0  0  0  0  0  0  0
   -5.0115    4.4623   14.9826 C   0  0  0  0  0  0  0  0  0  0  0  0
   -3.6269    4.3627   14.8012 C   0  0  0  0  0  0  0  0  0  0  0  0
   -2.9643    3.1867   15.1683 C   0  0  0  0  0  0  0  0  0  0  0  0
   -3.6783    2.1121   15.7118 C   0  0  0  0  0  0  0  0  0  0  0  0
   -2.8762    5.4895   14.2273 C   0  0  0  0  0  0  0  0  0  0  0  0
   -1.9589    5.2744   13.1944 C   0  0  0  0  0  0  0  0  0  0  0  0
   -1.2475    6.3473   12.6506 C   0  0  0  0  0  0  0  0  0  0  0  0
   -1.4409    7.6372   13.1284 C   0  0  0  0  0  0  0  0  0  0  0  0
   -2.3514    7.8554   14.1546 C   0  0  0  0  0  0  0  0  0  0  0  0
   -3.0689    6.7890   14.7048 C   0  0  0  0  0  0  0  0  0  0  0  0
   -0.7359    8.6920   12.5891 N   0  0  0  0  0  0  0  0  0  0  0  0
   -5.6539   -0.5903   14.8469 H   0  0  0  0  0  0  0  0  0  0  0  0
   -4.9841   -1.1748   16.3873 H   0  0  0  0  0  0  0  0  0  0  0  0
   -6.8003    3.4865   15.6650 H   0  0  0  0  0  0  0  0  0  0  0  0
   -5.5376    5.3674   14.6957 H   0  0  0  0  0  0  0  0  0  0  0  0
   -1.8892    3.1077   15.0424 H   0  0  0  0  0  0  0  0  0  0  0  0
   -3.1485    1.2164   16.0074 H   0  0  0  0  0  0  0  0  0  0  0  0
   -1.7992    4.2737   12.8028 H   0  0  0  0  0  0  0  0  0  0  0  0
   -0.5436    6.1561   11.8468 H   0  0  0  0  0  0  0  0  0  0  0  0
   -2.5160    8.8545   14.5446 H   0  0  0  0  0  0  0  0  0  0  0  0
   -3.7718    6.9768   15.5123 H   0  0  0  0  0  0  0  0  0  0  0  0
   -0.0749    8.5326   11.8430 H   0  0  0  0  0  0  0  0  0  0  0  0
   -0.8765    9.6280   12.9379 H   0  0  0  0  0  0  0  0  0  0  0  0
  1  2  1  0  0  0  0
  1  3  2  0  0  0  0
  1  4  2  0  0  0  0
  1  5  1  0  0  0  0
  2 18  1  0  0  0  0
  2 19  1  0  0  0  0
  5  6  2  0  0  0  0
  5 10  1  0  0  0  0
  6  7  1  0  0  0  0
  6 20  1  0  0  0  0
  7  8  2  0  0  0  0
  7 21  1  0  0  0  0
  8  9  1  0  0  0  0
  8 11  1  0  0  0  0
  9 10  2  0  0  0  0
  9 22  1  0  0  0  0
 10 23  1  0  0  0  0
 11 12  2  0  0  0  0
 11 16  1  0  0  0  0
 12 13  1  0  0  0  0
 12 24  1  0  0  0  0
 13 14  2  0  0  0  0
 13 25  1  0  0  0  0
 14 15  1  0  0  0  0
 14 17  1  0  0  0  0
 15 16  2  0  0  0  0
 15 26  1  0  0  0  0
 16 27  1  0  0  0  0
 17 28  1  0  0  0  0
 17 29  1  0  0  0  0
M  END
$$$$
