BJ2
 OpenBabel04161912233D

 57 58  0  0  1  0  0  0  0  0999 V2000
   -2.3083   29.4706   -0.3425 C   0  0  0  0  0  0  0  0  0  0  0  0
   -1.7837   28.6183   -1.4727 C   0  0  1  0  0  0  0  0  0  0  0  0
   -2.2858   28.2051   -3.9424 C   0  0  2  0  0  0  0  0  0  0  0  0
   -0.8192   28.5762   -4.2982 C   0  0  0  0  0  0  0  0  0  0  0  0
   -3.2891   28.6879   -5.0301 C   0  0  2  0  0  0  0  0  0  0  0  0
   -4.5148   27.7667   -5.0518 C   0  0  0  0  0  0  0  0  0  0  0  0
   -3.9799   26.5573   -5.8211 C   0  0  0  0  0  0  0  0  0  0  0  0
   -3.0228   27.1664   -6.8482 C   0  0  0  0  0  0  0  0  0  0  0  0
   -2.2085   29.5441   -7.1287 C   0  0  0  0  0  0  0  0  0  0  0  0
   -1.6682   29.2224   -8.5538 C   0  0  2  0  0  0  0  0  0  0  0  0
   -0.2288   29.6724   -8.6799 C   0  0  0  0  0  0  0  0  0  0  0  0
    0.4483   29.1521   -9.9254 C   0  0  0  0  0  0  0  0  0  0  0  0
   -1.6884   27.1303   -1.1007 C   0  0  0  0  0  0  0  0  0  0  0  0
    0.5400   27.4840    0.0055 C   0  0  0  0  0  0  0  0  0  0  0  0
    1.5492   26.5097    0.5595 C   0  0  0  0  0  0  0  0  0  0  0  0
    0.7335   25.2910    0.9889 C   0  0  0  0  0  0  0  0  0  0  0  0
   -0.5291   25.3111    0.1270 C   0  0  1  0  0  0  0  0  0  0  0  0
   -1.7388   24.9764    1.0475 C   0  0  0  0  0  0  0  0  0  0  0  0
   -2.7815   28.8002   -2.6167 N   0  3  0  0  0  0  0  0  0  0  0  0
   -2.8124   28.5252   -6.4113 N   0  0  0  0  0  0  0  0  0  0  0  0
   -2.5557   29.9830   -9.5368 N   0  3  0  0  0  0  0  0  0  0  0  0
   -0.5708   26.6833   -0.4434 N   0  0  0  0  0  0  0  0  0  0  0  0
   -0.0670   27.6128   -4.5612 O   0  0  0  0  0  0  0  0  0  0  0  0
   -0.5700   29.8022   -4.1179 O   0  0  0  0  0  0  0  0  0  0  0  0
   -2.2667   30.7187   -6.7538 O   0  0  0  0  0  0  0  0  0  0  0  0
    0.9138   30.0477  -10.6786 O   0  0  0  0  0  0  0  0  0  0  0  0
    0.3262   27.9183  -10.1214 O   0  0  0  0  0  0  0  0  0  0  0  0
   -2.6445   26.3943   -1.4324 O   0  0  0  0  0  0  0  0  0  0  0  0
   -2.1304   23.7679    1.0124 O   0  0  0  0  0  0  0  0  0  0  0  0
   -2.1654   25.9393    1.7614 O   0  0  0  0  0  0  0  0  0  0  0  0
   -2.3586   30.5321   -0.6501 H   0  0  0  0  0  0  0  0  0  0  0  0
   -1.6556   29.4208    0.5327 H   0  0  0  0  0  0  0  0  0  0  0  0
   -3.3105   29.1713   -0.0375 H   0  0  0  0  0  0  0  0  0  0  0  0
   -0.8138   28.9961   -1.8131 H   0  0  0  0  0  0  0  0  0  0  0  0
   -2.3334   27.1233   -3.7984 H   0  0  0  0  0  0  0  0  0  0  0  0
   -3.6041   29.7195   -4.8367 H   0  0  0  0  0  0  0  0  0  0  0  0
   -5.3261   28.2418   -5.6213 H   0  0  0  0  0  0  0  0  0  0  0  0
   -4.9103   27.5154   -4.0628 H   0  0  0  0  0  0  0  0  0  0  0  0
   -4.7706   25.9667   -6.2869 H   0  0  0  0  0  0  0  0  0  0  0  0
   -3.4316   25.8923   -5.1453 H   0  0  0  0  0  0  0  0  0  0  0  0
   -3.4678   27.1789   -7.8472 H   0  0  0  0  0  0  0  0  0  0  0  0
   -2.0546   26.6606   -6.8752 H   0  0  0  0  0  0  0  0  0  0  0  0
   -1.8095   28.1713   -8.8222 H   0  0  0  0  0  0  0  0  0  0  0  0
    0.3277   29.2735   -7.8303 H   0  0  0  0  0  0  0  0  0  0  0  0
   -0.1446   30.7678   -8.6313 H   0  0  0  0  0  0  0  0  0  0  0  0
    0.9344   28.0653   -0.8388 H   0  0  0  0  0  0  0  0  0  0  0  0
    0.1911   28.1853    0.7756 H   0  0  0  0  0  0  0  0  0  0  0  0
    2.1134   26.9348    1.3924 H   0  0  0  0  0  0  0  0  0  0  0  0
    2.2642   26.2310   -0.2223 H   0  0  0  0  0  0  0  0  0  0  0  0
    0.4994   25.3443    2.0582 H   0  0  0  0  0  0  0  0  0  0  0  0
    1.3047   24.3666    0.8368 H   0  0  0  0  0  0  0  0  0  0  0  0
   -0.4285   24.5989   -0.7021 H   0  0  0  0  0  0  0  0  0  0  0  0
   -3.6427   28.3432   -2.3283 H   0  0  0  0  0  0  0  0  0  0  0  0
   -2.2564   29.8001  -10.5007 H   0  0  0  0  0  0  0  0  0  0  0  0
   -3.5305   29.6918   -9.4211 H   0  0  0  0  0  0  0  0  0  0  0  0
   -2.8869   29.8111   -2.7745 H   0  0  0  0  0  0  0  0  0  0  0  0
   -2.4770   30.9818   -9.3410 H   0  0  0  0  0  0  0  0  0  0  0  0
  1  2  1  0  0  0  0
  1 31  1  0  0  0  0
  1 32  1  0  0  0  0
  1 33  1  0  0  0  0
  2 13  1  0  0  0  0
  2 19  1  0  0  0  0
  2 34  1  6  0  0  0
  3  4  1  0  0  0  0
  3  5  1  0  0  0  0
  3 19  1  0  0  0  0
  3 35  1  1  0  0  0
  4 23  2  0  0  0  0
  4 24  1  0  0  0  0
  5  6  1  0  0  0  0
  5 20  1  0  0  0  0
  5 36  1  1  0  0  0
  6  7  1  0  0  0  0
  6 37  1  0  0  0  0
  6 38  1  0  0  0  0
  7  8  1  0  0  0  0
  7 39  1  0  0  0  0
  7 40  1  0  0  0  0
  8 20  1  0  0  0  0
  8 41  1  0  0  0  0
  8 42  1  0  0  0  0
  9 10  1  0  0  0  0
  9 20  1  0  0  0  0
  9 25  2  0  0  0  0
 10 11  1  0  0  0  0
 10 21  1  0  0  0  0
 10 43  1  6  0  0  0
 11 12  1  0  0  0  0
 11 44  1  0  0  0  0
 11 45  1  0  0  0  0
 12 26  2  0  0  0  0
 12 27  1  0  0  0  0
 13 22  1  0  0  0  0
 13 28  2  0  0  0  0
 14 15  1  0  0  0  0
 14 22  1  0  0  0  0
 14 46  1  0  0  0  0
 14 47  1  0  0  0  0
 15 16  1  0  0  0  0
 15 48  1  0  0  0  0
 15 49  1  0  0  0  0
 16 17  1  0  0  0  0
 16 50  1  0  0  0  0
 16 51  1  0  0  0  0
 17 18  1  0  0  0  0
 17 22  1  0  0  0  0
 17 52  1  6  0  0  0
 18 29  2  0  0  0  0
 18 30  1  0  0  0  0
 19 53  1  0  0  0  0
 19 56  1  0  0  0  0
 21 54  1  0  0  0  0
 21 55  1  0  0  0  0
 21 57  1  0  0  0  0
M  CHG  2  19   1  21   1
M  END
$$$$
