BS5
 OpenBabel04161910353D

 43 45  0  0  1  0  0  0  0  0999 V2000
  -31.7785    4.2813  -23.8445 S   0  0  0  0  0  0  0  0  0  0  0  0
  -27.0409    4.8412  -33.7811 N   0  0  0  0  0  0  0  0  0  0  0  0
  -26.4545    5.0643  -32.5805 C   0  0  0  0  0  0  0  0  0  0  0  0
  -27.0464    5.3263  -31.3933 N   0  0  0  0  0  0  0  0  0  0  0  0
  -28.3853    5.3336  -31.5053 C   0  0  0  0  0  0  0  0  0  0  0  0
  -29.1217    5.1139  -32.6708 C   0  0  0  0  0  0  0  0  0  0  0  0
  -28.4058    4.8586  -33.8550 C   0  0  0  0  0  0  0  0  0  0  0  0
  -28.9888    4.6203  -35.0830 N   0  0  0  0  0  0  0  0  0  0  0  0
  -30.4758    5.2020  -32.3918 N   0  0  0  0  0  0  0  0  0  0  0  0
  -30.5505    5.4421  -31.1176 C   0  0  0  0  0  0  0  0  0  0  0  0
  -29.3103    5.5517  -30.5262 N   0  3  0  0  0  0  0  0  0  0  0  0
  -29.0261    5.8463  -29.1356 C   0  0  1  0  0  0  0  0  0  0  0  0
  -29.8606    6.9733  -28.5385 C   0  0  2  0  0  0  0  0  0  0  0  0
  -29.3691    8.2804  -28.7936 O   0  0  0  0  0  0  0  0  0  0  0  0
  -29.8412    6.6445  -27.0594 C   0  0  2  0  0  0  0  0  0  0  0  0
  -28.8335    7.3719  -26.3593 O   0  0  0  0  0  0  0  0  0  0  0  0
  -29.5591    5.1455  -27.0094 C   0  0  2  0  0  0  0  0  0  0  0  0
  -29.3423    4.6881  -28.3509 O   0  0  0  0  0  0  0  0  0  0  0  0
  -30.7157    4.3794  -26.3570 C   0  0  0  0  0  0  0  0  0  0  0  0
  -30.5687    4.5573  -24.9206 N   0  0  0  0  0  0  0  0  0  0  0  0
  -32.7771    7.9329  -24.8671 C   0  0  0  0  0  0  0  0  0  0  0  0
  -32.4719    6.9319  -23.7817 C   0  0  0  0  0  0  0  0  0  0  0  0
  -32.7121    5.6044  -24.1521 N   0  0  0  0  0  0  0  0  0  0  0  0
  -32.0317    7.2699  -22.6938 O   0  0  0  0  0  0  0  0  0  0  0  0
  -31.1655    4.3412  -22.5470 O   0  0  0  0  0  0  0  0  0  0  0  0
  -32.5322    3.1406  -24.3039 O   0  0  0  0  0  0  0  0  0  0  0  0
  -25.3737    5.0299  -32.5651 H   0  0  0  0  0  0  0  0  0  0  0  0
  -29.9867    4.6225  -35.1586 H   0  0  0  0  0  0  0  0  0  0  0  0
  -28.4008    4.4319  -35.8853 H   0  0  0  0  0  0  0  0  0  0  0  0
  -31.4704    5.5685  -30.5501 H   0  0  0  0  0  0  0  0  0  0  0  0
  -27.9539    6.0709  -29.0338 H   0  0  0  0  0  0  0  0  0  0  0  0
  -30.9024    6.9239  -28.8784 H   0  0  0  0  0  0  0  0  0  0  0  0
  -28.4396    8.3026  -28.4931 H   0  0  0  0  0  0  0  0  0  0  0  0
  -30.7952    6.8755  -26.6070 H   0  0  0  0  0  0  0  0  0  0  0  0
  -29.0759    8.3178  -26.3862 H   0  0  0  0  0  0  0  0  0  0  0  0
  -28.6364    4.9650  -26.4417 H   0  0  0  0  0  0  0  0  0  0  0  0
  -30.6756    3.3236  -26.6468 H   0  0  0  0  0  0  0  0  0  0  0  0
  -31.6818    4.7733  -26.6977 H   0  0  0  0  0  0  0  0  0  0  0  0
  -29.6349    4.5739  -24.5085 H   0  0  0  0  0  0  0  0  0  0  0  0
  -32.5608    8.9457  -24.5203 H   0  0  0  0  0  0  0  0  0  0  0  0
  -33.8072    7.8580  -25.2147 H   0  0  0  0  0  0  0  0  0  0  0  0
  -32.1283    7.7580  -25.7179 H   0  0  0  0  0  0  0  0  0  0  0  0
  -33.5969    5.3612  -24.5812 H   0  0  0  0  0  0  0  0  0  0  0  0
  1 20  1  0  0  0  0
  1 23  1  0  0  0  0
  1 25  2  0  0  0  0
  1 26  2  0  0  0  0
  2  3  2  0  0  0  0
  2  7  1  0  0  0  0
  3  4  1  0  0  0  0
  3 27  1  0  0  0  0
  4  5  2  0  0  0  0
  5  6  1  0  0  0  0
  5 11  1  0  0  0  0
  6  7  2  0  0  0  0
  6  9  1  0  0  0  0
  7  8  1  0  0  0  0
  8 28  1  0  0  0  0
  8 29  1  0  0  0  0
  9 10  1  0  0  0  0
 10 11  2  0  0  0  0
 10 30  1  0  0  0  0
 11 12  1  0  0  0  0
 12 13  1  0  0  0  0
 12 18  1  0  0  0  0
 12 31  1  1  0  0  0
 13 14  1  0  0  0  0
 13 15  1  0  0  0  0
 13 32  1  6  0  0  0
 14 33  1  0  0  0  0
 15 16  1  0  0  0  0
 15 17  1  0  0  0  0
 15 34  1  1  0  0  0
 16 35  1  0  0  0  0
 17 18  1  0  0  0  0
 17 19  1  0  0  0  0
 17 36  1  1  0  0  0
 19 20  1  0  0  0  0
 19 37  1  0  0  0  0
 19 38  1  0  0  0  0
 20 39  1  0  0  0  0
 21 22  1  0  0  0  0
 21 40  1  0  0  0  0
 21 41  1  0  0  0  0
 21 42  1  0  0  0  0
 22 23  1  0  0  0  0
 22 24  2  0  0  0  0
 23 43  1  0  0  0  0
M  CHG  1  11   1
M  END
$$$$
