BX4
 OpenBabel04161909573D

 29 30  0  0  0  0  0  0  0  0999 V2000
   -5.9427    0.9334   16.6480 S   0  0  0  0  0  0  0  0  0  0  0  0
   -5.3557   -0.3656   15.7779 N   0  0  0  0  0  0  0  0  0  0  0  0
   -5.5009    0.7907   18.0121 O   0  0  0  0  0  0  0  0  0  0  0  0
   -7.3405    1.0357   16.2854 O   0  0  0  0  0  0  0  0  0  0  0  0
   -5.0618    2.2727   15.9100 C   0  0  0  0  0  0  0  0  0  0  0  0
   -3.6823    2.1587   15.7144 C   0  0  0  0  0  0  0  0  0  0  0  0
   -2.9828    3.2237   15.1469 C   0  0  0  0  0  0  0  0  0  0  0  0
   -3.6443    4.4087   14.7732 C   0  0  0  0  0  0  0  0  0  0  0  0
   -5.0322    4.4900   14.9861 C   0  0  0  0  0  0  0  0  0  0  0  0
   -5.7432    3.4286   15.5475 C   0  0  0  0  0  0  0  0  0  0  0  0
   -2.9126    5.5244   14.1832 C   0  0  0  0  0  0  0  0  0  0  0  0
   -3.1354    6.8399   14.6150 C   0  0  0  0  0  0  0  0  0  0  0  0
   -2.4307    7.8980   14.0523 C   0  0  0  0  0  0  0  0  0  0  0  0
   -1.4888    7.6624   13.0402 C   0  0  0  0  0  0  0  0  0  0  0  0
   -1.2517    6.3677   12.5869 C   0  0  0  0  0  0  0  0  0  0  0  0
   -1.9686    5.3140   13.1590 C   0  0  0  0  0  0  0  0  0  0  0  0
   -0.2936    6.1232   11.6255 N   0  0  0  0  0  0  0  0  0  0  0  0
   -4.5057   -0.7948   16.1301 H   0  0  0  0  0  0  0  0  0  0  0  0
   -6.0788   -0.9500   15.3622 H   0  0  0  0  0  0  0  0  0  0  0  0
   -3.1389    1.2632   16.0063 H   0  0  0  0  0  0  0  0  0  0  0  0
   -1.9046    3.1350   15.0113 H   0  0  0  0  0  0  0  0  0  0  0  0
   -5.5756    5.3898   14.7001 H   0  0  0  0  0  0  0  0  0  0  0  0
   -6.8143    3.5203   15.7016 H   0  0  0  0  0  0  0  0  0  0  0  0
   -3.8529    7.0483   15.4093 H   0  0  0  0  0  0  0  0  0  0  0  0
   -2.6176    8.9116   14.3871 H   0  0  0  0  0  0  0  0  0  0  0  0
   -0.9599    8.5007   12.6189 H   0  0  0  0  0  0  0  0  0  0  0  0
   -1.7776    4.2983   12.8132 H   0  0  0  0  0  0  0  0  0  0  0  0
    0.1824    6.8911   11.1771 H   0  0  0  0  0  0  0  0  0  0  0  0
   -0.1539    5.1896   11.2709 H   0  0  0  0  0  0  0  0  0  0  0  0
  1  2  1  0  0  0  0
  1  3  2  0  0  0  0
  1  4  2  0  0  0  0
  1  5  1  0  0  0  0
  2 18  1  0  0  0  0
  2 19  1  0  0  0  0
  5  6  2  0  0  0  0
  5 10  1  0  0  0  0
  6  7  1  0  0  0  0
  6 20  1  0  0  0  0
  7  8  2  0  0  0  0
  7 21  1  0  0  0  0
  8  9  1  0  0  0  0
  8 11  1  0  0  0  0
  9 10  2  0  0  0  0
  9 22  1  0  0  0  0
 10 23  1  0  0  0  0
 11 12  2  0  0  0  0
 11 16  1  0  0  0  0
 12 13  1  0  0  0  0
 12 24  1  0  0  0  0
 13 14  2  0  0  0  0
 13 25  1  0  0  0  0
 14 15  1  0  0  0  0
 14 26  1  0  0  0  0
 15 16  2  0  0  0  0
 15 17  1  0  0  0  0
 16 27  1  0  0  0  0
 17 28  1  0  0  0  0
 17 29  1  0  0  0  0
M  END
$$$$
