BYB
 OpenBabel04161912243D

 46 50  0  0  1  0  0  0  0  0999 V2000
   20.8483  -31.2528   -9.1618 C   0  0  0  0  0  0  0  0  0  0  0  0
   21.1425  -30.0305   -9.7933 C   0  0  0  0  0  0  0  0  0  0  0  0
   20.0255  -32.2090   -9.7417 C   0  0  0  0  0  0  0  0  0  0  0  0
   19.5615  -31.7684  -10.9927 C   0  0  0  0  0  0  0  0  0  0  0  0
   19.8851  -30.5172  -11.6173 C   0  0  0  0  0  0  0  0  0  0  0  0
   20.6980  -29.6010  -11.0201 N   0  0  0  0  0  0  0  0  0  0  0  0
   19.2823  -30.3945  -12.8018 N   0  0  0  0  0  0  0  0  0  0  0  0
   18.5888  -31.5460  -12.9218 N   0  3  0  0  0  0  0  0  0  0  0  0
   18.7040  -32.4051  -11.8610 C   0  0  0  0  0  0  0  0  0  0  0  0
   17.9894  -33.6526  -11.8267 C   0  0  0  0  0  0  0  0  0  0  0  0
   18.1167  -34.3630  -10.7051 N   0  0  0  0  0  0  0  0  0  0  0  0
   17.4548  -35.5223  -10.5922 C   0  0  0  0  0  0  0  0  0  0  0  0
   16.6200  -35.9537  -11.6079 C   0  0  0  0  0  0  0  0  0  0  0  0
   16.5256  -35.1546  -12.7257 C   0  0  0  0  0  0  0  0  0  0  0  0
   17.1960  -33.9840  -12.8733 N   0  0  0  0  0  0  0  0  0  0  0  0
   17.5020  -36.2030   -9.3887 N   0  0  0  0  0  0  0  0  0  0  0  0
   18.4179  -35.7620   -8.3277 C   0  0  1  0  0  0  0  0  0  0  0  0
   17.6481  -34.7093   -7.4757 C   0  0  1  0  0  0  0  0  0  0  0  0
   16.5195  -35.4080   -6.6908 C   0  0  0  0  0  0  0  0  0  0  0  0
   17.1198  -36.3943   -5.6833 C   0  0  0  0  0  0  0  0  0  0  0  0
   18.6295  -36.5556   -5.9408 C   0  0  1  0  0  0  0  0  0  0  0  0
   18.8264  -36.9461   -7.4295 C   0  0  2  0  0  0  0  0  0  0  0  0
   21.3778  -31.4888   -7.9438 F   0  0  0  0  0  0  0  0  0  0  0  0
   15.9081  -37.0859  -11.5088 F   0  0  0  0  0  0  0  0  0  0  0  0
   20.2726  -37.4445   -7.5996 C   0  0  0  0  0  0  0  0  0  0  0  0
   21.0667  -36.7005   -8.2352 O   0  0  0  0  0  0  0  0  0  0  0  0
   20.4982  -38.5721   -7.0689 O   0  0  0  0  0  0  0  0  0  0  0  0
   18.6300  -34.0907   -6.4736 C   0  0  0  0  0  0  0  0  0  0  0  0
   19.3124  -35.1997   -5.6657 C   0  0  0  0  0  0  0  0  0  0  0  0
   21.7839  -29.3224   -9.2805 H   0  0  0  0  0  0  0  0  0  0  0  0
   19.8017  -33.1474   -9.2665 H   0  0  0  0  0  0  0  0  0  0  0  0
   18.0334  -31.6916  -13.7552 H   0  0  0  0  0  0  0  0  0  0  0  0
   15.8753  -35.4492  -13.5417 H   0  0  0  0  0  0  0  0  0  0  0  0
   17.2175  -37.1734   -9.3873 H   0  0  0  0  0  0  0  0  0  0  0  0
   19.3072  -35.2814   -8.7535 H   0  0  0  0  0  0  0  0  0  0  0  0
   17.2152  -33.9258   -8.1092 H   0  0  0  0  0  0  0  0  0  0  0  0
   15.8470  -35.9406   -7.3744 H   0  0  0  0  0  0  0  0  0  0  0  0
   15.9017  -34.6689   -6.1684 H   0  0  0  0  0  0  0  0  0  0  0  0
   16.6111  -37.3618   -5.7614 H   0  0  0  0  0  0  0  0  0  0  0  0
   16.9491  -36.0284   -4.6637 H   0  0  0  0  0  0  0  0  0  0  0  0
   19.0396  -37.3157   -5.2664 H   0  0  0  0  0  0  0  0  0  0  0  0
   18.1901  -37.8160   -7.6431 H   0  0  0  0  0  0  0  0  0  0  0  0
   18.1003  -33.4054   -5.8012 H   0  0  0  0  0  0  0  0  0  0  0  0
   19.3865  -33.4953   -6.9940 H   0  0  0  0  0  0  0  0  0  0  0  0
   20.3744  -35.2476   -5.9323 H   0  0  0  0  0  0  0  0  0  0  0  0
   19.2717  -34.9576   -4.5982 H   0  0  0  0  0  0  0  0  0  0  0  0
  1  2  2  0  0  0  0
  1  3  1  0  0  0  0
  1 23  1  0  0  0  0
  2  6  1  0  0  0  0
  2 30  1  0  0  0  0
  3  4  2  0  0  0  0
  3 31  1  0  0  0  0
  4  5  1  0  0  0  0
  4  9  1  0  0  0  0
  5  6  2  0  0  0  0
  5  7  1  0  0  0  0
  7  8  1  0  0  0  0
  8  9  2  0  0  0  0
  8 32  1  0  0  0  0
  9 10  1  0  0  0  0
 10 11  2  0  0  0  0
 10 15  1  0  0  0  0
 11 12  1  0  0  0  0
 12 13  2  0  0  0  0
 12 16  1  0  0  0  0
 13 14  1  0  0  0  0
 13 24  1  0  0  0  0
 14 15  2  0  0  0  0
 14 33  1  0  0  0  0
 16 17  1  0  0  0  0
 16 34  1  0  0  0  0
 17 18  1  0  0  0  0
 17 22  1  0  0  0  0
 17 35  1  6  0  0  0
 18 19  1  0  0  0  0
 18 28  1  0  0  0  0
 18 36  1  6  0  0  0
 19 20  1  0  0  0  0
 19 37  1  0  0  0  0
 19 38  1  0  0  0  0
 20 21  1  0  0  0  0
 20 39  1  0  0  0  0
 20 40  1  0  0  0  0
 21 22  1  0  0  0  0
 21 29  1  0  0  0  0
 21 41  1  1  0  0  0
 22 25  1  0  0  0  0
 22 42  1  6  0  0  0
 25 26  2  0  0  0  0
 25 27  1  0  0  0  0
 28 29  1  0  0  0  0
 28 43  1  0  0  0  0
 28 44  1  0  0  0  0
 29 45  1  0  0  0  0
 29 46  1  0  0  0  0
M  CHG  1   8   1
M  END
$$$$
