C5N
 OpenBabel04161911193D

 82 87  0  0  0  0  0  0  0  0999 V2000
   -1.3836   -6.6741  -16.8701 O   0  0  0  0  0  0  0  0  0  0  0  0
    3.1410  -16.6438  -18.5367 O   0  0  0  0  0  0  0  0  0  0  0  0
   -1.2639   -5.3534  -16.3559 C   0  0  0  0  0  0  0  0  0  0  0  0
   -1.6263   -7.6818  -15.9691 C   0  0  0  0  0  0  0  0  0  0  0  0
   -1.6888   -7.5087  -14.5896 C   0  0  0  0  0  0  0  0  0  0  0  0
   -1.9459   -8.5780  -13.7121 C   0  0  0  0  0  0  0  0  0  0  0  0
   -1.9702   -8.3975  -12.3416 N   0  0  0  0  0  0  0  0  0  0  0  0
   -1.0635   -7.4230  -11.7438 C   0  0  0  0  0  0  0  0  0  0  0  0
   -0.5789   -7.8720  -10.3635 C   0  0  0  0  0  0  0  0  0  0  0  0
   -1.7449   -8.2831   -9.4991 N   0  3  0  0  0  0  0  0  0  0  0  0
   -1.3195   -8.6166   -8.1198 C   0  0  0  0  0  0  0  0  0  0  0  0
   -2.4484   -9.4413  -10.1640 C   0  0  0  0  0  0  0  0  0  0  0  0
   -3.0108   -9.0089  -11.5188 C   0  0  0  0  0  0  0  0  0  0  0  0
   -2.0981   -9.8496  -14.2745 C   0  0  0  0  0  0  0  0  0  0  0  0
   -2.0124  -10.0471  -15.6563 C   0  0  0  0  0  0  0  0  0  0  0  0
   -1.7962   -8.9640  -16.5155 C   0  0  0  0  0  0  0  0  0  0  0  0
   -1.7105   -9.1379  -17.8988 N   0  0  0  0  0  0  0  0  0  0  0  0
   -1.0062  -10.1033  -18.6058 C   0  0  0  0  0  0  0  0  0  0  0  0
   -0.9625  -10.0195  -19.9326 N   0  0  0  0  0  0  0  0  0  0  0  0
   -0.2473  -10.9554  -20.6096 C   0  0  0  0  0  0  0  0  0  0  0  0
    0.4137  -12.0286  -19.9918 C   0  0  0  0  0  0  0  0  0  0  0  0
    1.1287  -13.0777  -20.6157 C   0  0  0  0  0  0  0  0  0  0  0  0
    1.5220  -14.2352  -19.8919 C   0  0  0  0  0  0  0  0  0  0  0  0
    1.4943  -14.1593  -18.4751 C   0  0  0  0  0  0  0  0  0  0  0  0
    0.8980  -13.0544  -17.8482 C   0  0  0  0  0  0  0  0  0  0  0  0
    1.0309  -13.2760  -16.4871 N   0  3  0  0  0  0  0  0  0  0  0  0
    0.5761  -12.4125  -15.3994 C   0  0  0  0  0  0  0  0  0  0  0  0
    1.6691  -14.4233  -16.1706 N   0  0  0  0  0  0  0  0  0  0  0  0
    1.9557  -14.9751  -17.3684 C   0  0  0  0  0  0  0  0  0  0  0  0
    2.7080  -16.2639  -17.4747 C   0  0  0  0  0  0  0  0  0  0  0  0
    2.8123  -16.9353  -16.2802 N   0  0  0  0  0  0  0  0  0  0  0  0
    3.5292  -18.1318  -16.1672 C   0  0  0  0  0  0  0  0  0  0  0  0
    2.8583  -19.3589  -16.2946 C   0  0  0  0  0  0  0  0  0  0  0  0
    1.3840  -19.4401  -16.5930 C   0  0  0  0  0  0  0  0  0  0  0  0
    0.5017  -19.2898  -15.3714 C   0  0  0  0  0  0  0  0  0  0  0  0
    3.5956  -20.5452  -16.1857 C   0  0  0  0  0  0  0  0  0  0  0  0
    4.9654  -20.5153  -15.9452 C   0  0  0  0  0  0  0  0  0  0  0  0
    5.6180  -19.2949  -15.8095 C   0  0  0  0  0  0  0  0  0  0  0  0
    4.9126  -18.0910  -15.9192 C   0  0  0  0  0  0  0  0  0  0  0  0
    5.6623  -16.7908  -15.7893 C   0  0  0  0  0  0  0  0  0  0  0  0
    5.5818  -16.1895  -14.4021 C   0  0  0  0  0  0  0  0  0  0  0  0
    0.2894  -12.0320  -18.5945 C   0  0  0  0  0  0  0  0  0  0  0  0
   -0.3812  -11.0730  -17.9118 N   0  0  0  0  0  0  0  0  0  0  0  0
   -1.0750   -4.6713  -17.1930 H   0  0  0  0  0  0  0  0  0  0  0  0
   -0.4230   -5.2823  -15.6584 H   0  0  0  0  0  0  0  0  0  0  0  0
   -2.1937   -5.0484  -15.8652 H   0  0  0  0  0  0  0  0  0  0  0  0
   -1.5941   -6.5154  -14.1689 H   0  0  0  0  0  0  0  0  0  0  0  0
   -1.5592   -6.4545  -11.6394 H   0  0  0  0  0  0  0  0  0  0  0  0
   -0.1661   -7.3181  -12.3602 H   0  0  0  0  0  0  0  0  0  0  0  0
   -0.0695   -7.0543   -9.8515 H   0  0  0  0  0  0  0  0  0  0  0  0
    0.0780   -8.7446  -10.4456 H   0  0  0  0  0  0  0  0  0  0  0  0
   -2.2099   -8.8926   -7.5539 H   0  0  0  0  0  0  0  0  0  0  0  0
   -0.8512   -7.7300   -7.6912 H   0  0  0  0  0  0  0  0  0  0  0  0
   -0.6150   -9.4478   -8.1755 H   0  0  0  0  0  0  0  0  0  0  0  0
   -3.2467   -9.7629   -9.4940 H   0  0  0  0  0  0  0  0  0  0  0  0
   -1.7045  -10.2351  -10.2902 H   0  0  0  0  0  0  0  0  0  0  0  0
   -3.4191   -9.9035  -11.9879 H   0  0  0  0  0  0  0  0  0  0  0  0
   -3.8226   -8.2944  -11.3411 H   0  0  0  0  0  0  0  0  0  0  0  0
   -2.2555  -10.7230  -13.6449 H   0  0  0  0  0  0  0  0  0  0  0  0
   -2.1511  -11.0482  -16.0673 H   0  0  0  0  0  0  0  0  0  0  0  0
   -2.1770   -8.4534  -18.4697 H   0  0  0  0  0  0  0  0  0  0  0  0
   -0.2471  -10.8422  -21.6946 H   0  0  0  0  0  0  0  0  0  0  0  0
    1.3972  -12.9656  -21.6689 H   0  0  0  0  0  0  0  0  0  0  0  0
    1.8460  -15.1730  -20.3782 H   0  0  0  0  0  0  0  0  0  0  0  0
    0.8228  -12.8675  -14.4329 H   0  0  0  0  0  0  0  0  0  0  0  0
   -0.5060  -12.2990  -15.4580 H   0  0  0  0  0  0  0  0  0  0  0  0
    1.0631  -11.4365  -15.4714 H   0  0  0  0  0  0  0  0  0  0  0  0
    2.3638  -16.5297  -15.4691 H   0  0  0  0  0  0  0  0  0  0  0  0
    1.1619  -20.4078  -17.0569 H   0  0  0  0  0  0  0  0  0  0  0  0
    1.1177  -18.6584  -17.3101 H   0  0  0  0  0  0  0  0  0  0  0  0
   -0.5521  -19.3576  -15.6687 H   0  0  0  0  0  0  0  0  0  0  0  0
    0.6663  -18.3188  -14.8957 H   0  0  0  0  0  0  0  0  0  0  0  0
    0.7124  -20.0818  -14.6468 H   0  0  0  0  0  0  0  0  0  0  0  0
    3.1045  -21.5073  -16.2960 H   0  0  0  0  0  0  0  0  0  0  0  0
    5.5244  -21.4432  -15.8624 H   0  0  0  0  0  0  0  0  0  0  0  0
    6.6872  -19.2890  -15.6215 H   0  0  0  0  0  0  0  0  0  0  0  0
    5.2645  -16.0669  -16.5052 H   0  0  0  0  0  0  0  0  0  0  0  0
    6.7176  -16.9541  -16.0337 H   0  0  0  0  0  0  0  0  0  0  0  0
    6.1438  -15.2485  -14.3761 H   0  0  0  0  0  0  0  0  0  0  0  0
    6.0094  -16.8745  -13.6639 H   0  0  0  0  0  0  0  0  0  0  0  0
    4.5417  -15.9819  -14.1341 H   0  0  0  0  0  0  0  0  0  0  0  0
   -2.4055   -7.4909   -9.4631 H   0  0  0  0  0  0  0  0  0  0  0  0
  1  3  1  0  0  0  0
  1  4  1  0  0  0  0
  2 30  2  0  0  0  0
  3 44  1  0  0  0  0
  3 45  1  0  0  0  0
  3 46  1  0  0  0  0
  4  5  2  0  0  0  0
  4 16  1  0  0  0  0
  5  6  1  0  0  0  0
  5 47  1  0  0  0  0
  6  7  1  0  0  0  0
  6 14  2  0  0  0  0
  7  8  1  0  0  0  0
  7 13  1  0  0  0  0
  8  9  1  0  0  0  0
  8 48  1  0  0  0  0
  8 49  1  0  0  0  0
  9 10  1  0  0  0  0
  9 50  1  0  0  0  0
  9 51  1  0  0  0  0
 10 11  1  0  0  0  0
 10 12  1  0  0  0  0
 10 82  1  0  0  0  0
 11 52  1  0  0  0  0
 11 53  1  0  0  0  0
 11 54  1  0  0  0  0
 12 13  1  0  0  0  0
 12 55  1  0  0  0  0
 12 56  1  0  0  0  0
 13 57  1  0  0  0  0
 13 58  1  0  0  0  0
 14 15  1  0  0  0  0
 14 59  1  0  0  0  0
 15 16  2  0  0  0  0
 15 60  1  0  0  0  0
 16 17  1  0  0  0  0
 17 18  1  0  0  0  0
 17 61  1  0  0  0  0
 18 19  2  0  0  0  0
 18 43  1  0  0  0  0
 19 20  1  0  0  0  0
 20 21  2  0  0  0  0
 20 62  1  0  0  0  0
 21 22  1  0  0  0  0
 21 42  1  0  0  0  0
 22 23  2  0  0  0  0
 22 63  1  0  0  0  0
 23 24  1  0  0  0  0
 23 64  1  0  0  0  0
 24 25  1  0  0  0  0
 24 29  2  0  0  0  0
 25 26  2  0  0  0  0
 25 42  1  0  0  0  0
 26 27  1  0  0  0  0
 26 28  1  0  0  0  0
 27 65  1  0  0  0  0
 27 66  1  0  0  0  0
 27 67  1  0  0  0  0
 28 29  1  0  0  0  0
 29 30  1  0  0  0  0
 30 31  1  0  0  0  0
 31 32  1  0  0  0  0
 31 68  1  0  0  0  0
 32 33  2  0  0  0  0
 32 39  1  0  0  0  0
 33 34  1  0  0  0  0
 33 36  1  0  0  0  0
 34 35  1  0  0  0  0
 34 69  1  0  0  0  0
 34 70  1  0  0  0  0
 35 71  1  0  0  0  0
 35 72  1  0  0  0  0
 35 73  1  0  0  0  0
 36 37  2  0  0  0  0
 36 74  1  0  0  0  0
 37 38  1  0  0  0  0
 37 75  1  0  0  0  0
 38 39  2  0  0  0  0
 38 76  1  0  0  0  0
 39 40  1  0  0  0  0
 40 41  1  0  0  0  0
 40 77  1  0  0  0  0
 40 78  1  0  0  0  0
 41 79  1  0  0  0  0
 41 80  1  0  0  0  0
 41 81  1  0  0  0  0
 42 43  2  0  0  0  0
M  CHG  2  10   1  26   1
M  END
$$$$
