CDP
 OpenBabel04161909473D

 37 38  0  0  1  0  0  0  0  0999 V2000
  -14.3992  -16.5285   11.9771 O   0  0  0  0  0  0  0  0  0  0  0  0
  -14.2057  -15.3955   10.9808 P   0  0  0  0  0  0  0  0  0  0  0  0
  -12.7347  -15.1403   10.6324 O   0  0  0  0  0  0  0  0  0  0  0  0
  -14.9165  -14.0969   11.3673 O   0  0  0  0  0  0  0  0  0  0  0  0
  -14.8800  -15.8722    9.5888 O   0  0  0  0  0  0  0  0  0  0  0  0
  -15.8397  -17.1225    9.2758 P   0  0  1  0  0  0  0  0  0  0  0  0
  -15.1064  -18.4441    9.1108 O   0  0  0  0  0  0  0  0  0  0  0  0
  -17.1998  -17.0580    9.9544 O   0  0  0  0  0  0  0  0  0  0  0  0
  -16.2009  -16.7516    7.6972 O   0  0  0  0  0  0  0  0  0  0  0  0
  -16.8009  -15.4833    7.5384 C   0  0  0  0  0  0  0  0  0  0  0  0
  -17.1127  -15.1759    6.0860 C   0  0  1  0  0  0  0  0  0  0  0  0
  -15.9140  -14.9860    5.2911 O   0  0  0  0  0  0  0  0  0  0  0  0
  -17.9235  -16.2427    5.3604 C   0  0  1  0  0  0  0  0  0  0  0  0
  -19.3079  -16.2879    5.7019 O   0  0  0  0  0  0  0  0  0  0  0  0
  -17.7041  -15.7988    3.9202 C   0  0  1  0  0  0  0  0  0  0  0  0
  -18.5886  -14.6840    3.6321 O   0  0  0  0  0  0  0  0  0  0  0  0
  -16.2231  -15.3570    3.9398 C   0  0  2  0  0  0  0  0  0  0  0  0
  -15.2813  -16.3630    3.4265 N   0  3  0  0  0  0  0  0  0  0  0  0
  -15.0809  -16.4103    2.0452 C   0  0  0  0  0  0  0  0  0  0  0  0
  -15.6621  -15.6908    1.2524 O   0  0  0  0  0  0  0  0  0  0  0  0
  -14.1808  -17.3543    1.6163 N   0  3  0  0  0  0  0  0  0  0  0  0
  -13.5079  -18.2498    2.3958 C   0  0  0  0  0  0  0  0  0  0  0  0
  -12.7042  -19.0610    1.8135 N   0  0  0  0  0  0  0  0  0  0  0  0
  -13.7863  -18.1843    3.8364 C   0  0  0  0  0  0  0  0  0  0  0  0
  -14.6482  -17.2519    4.2759 C   0  0  0  0  0  0  0  0  0  0  0  0
  -16.1002  -14.7288    7.8978 H   0  0  0  0  0  0  0  0  0  0  0  0
  -17.7302  -15.4433    8.1139 H   0  0  0  0  0  0  0  0  0  0  0  0
  -17.6518  -14.2191    6.0733 H   0  0  0  0  0  0  0  0  0  0  0  0
  -17.4955  -17.2398    5.5049 H   0  0  0  0  0  0  0  0  0  0  0  0
  -19.6506  -15.3837    5.5962 H   0  0  0  0  0  0  0  0  0  0  0  0
  -17.9292  -16.5801    3.1892 H   0  0  0  0  0  0  0  0  0  0  0  0
  -18.3631  -14.3740    2.7381 H   0  0  0  0  0  0  0  0  0  0  0  0
  -16.1048  -14.4492    3.3381 H   0  0  0  0  0  0  0  0  0  0  0  0
  -13.9932  -17.3961    0.6251 H   0  0  0  0  0  0  0  0  0  0  0  0
  -12.2671  -19.6679    2.5167 H   0  0  0  0  0  0  0  0  0  0  0  0
  -13.2877  -18.8679    4.5138 H   0  0  0  0  0  0  0  0  0  0  0  0
  -14.8451  -17.1642    5.3413 H   0  0  0  0  0  0  0  0  0  0  0  0
  1  2  2  0  0  0  0
  2  3  1  0  0  0  0
  2  4  1  0  0  0  0
  2  5  1  0  0  0  0
  6  5  1  1  0  0  0
  6  7  2  0  0  0  0
  6  8  1  0  0  0  0
  6  9  1  0  0  0  0
  9 10  1  0  0  0  0
 10 11  1  0  0  0  0
 10 26  1  0  0  0  0
 10 27  1  0  0  0  0
 11 12  1  0  0  0  0
 11 13  1  0  0  0  0
 11 28  1  6  0  0  0
 12 17  1  0  0  0  0
 13 14  1  0  0  0  0
 13 15  1  0  0  0  0
 13 29  1  1  0  0  0
 14 30  1  0  0  0  0
 15 16  1  0  0  0  0
 15 17  1  0  0  0  0
 15 31  1  6  0  0  0
 16 32  1  0  0  0  0
 17 18  1  0  0  0  0
 17 33  1  6  0  0  0
 18 19  1  0  0  0  0
 18 25  1  0  0  0  0
 19 20  2  0  0  0  0
 19 21  1  0  0  0  0
 21 22  1  0  0  0  0
 21 34  1  0  0  0  0
 22 23  2  0  0  0  0
 22 24  1  0  0  0  0
 23 35  1  0  0  0  0
 24 25  2  0  0  0  0
 24 36  1  0  0  0  0
 25 37  1  0  0  0  0
M  CHG  2  18   1  21   1
M  END
$$$$
