CMP
 OpenBabel04161910523D

 33 36  0  0  1  0  0  0  0  0999 V2000
   19.4555  -18.0483  -18.1508 P   0  0  2  0  0  0  0  0  0  0  0  0
   19.2952  -16.8026  -18.9772 O   0  0  0  0  0  0  0  0  0  0  0  0
   20.7992  -18.5465  -17.6867 O   0  0  0  0  0  0  0  0  0  0  0  0
   18.6963  -19.2749  -18.9145 O   0  0  0  0  0  0  0  0  0  0  0  0
   18.4790  -20.4735  -18.1840 C   0  0  0  0  0  0  0  0  0  0  0  0
   17.6594  -20.1434  -16.9547 C   0  0  1  0  0  0  0  0  0  0  0  0
   17.3944  -21.2243  -16.0536 O   0  0  0  0  0  0  0  0  0  0  0  0
   18.3769  -19.1118  -16.1140 C   0  0  1  0  0  0  0  0  0  0  0  0
   18.4889  -17.9056  -16.8314 O   0  0  0  0  0  0  0  0  0  0  0  0
   17.4867  -19.0871  -14.8837 C   0  0  1  0  0  0  0  0  0  0  0  0
   16.3432  -18.2338  -15.0579 O   0  0  0  0  0  0  0  0  0  0  0  0
   17.0252  -20.5634  -14.8098 C   0  0  2  0  0  0  0  0  0  0  0  0
   17.5099  -21.3375  -13.6894 N   0  3  0  0  0  0  0  0  0  0  0  0
   16.7195  -22.1299  -12.8952 C   0  0  0  0  0  0  0  0  0  0  0  0
   17.3987  -22.6861  -11.9119 N   0  0  0  0  0  0  0  0  0  0  0  0
   18.6939  -22.2341  -12.0790 C   0  0  0  0  0  0  0  0  0  0  0  0
   19.8848  -22.4557  -11.3597 C   0  0  0  0  0  0  0  0  0  0  0  0
   19.9729  -23.2446  -10.2332 N   0  0  0  0  0  0  0  0  0  0  0  0
   21.0140  -21.8509  -11.7832 N   0  0  0  0  0  0  0  0  0  0  0  0
   20.9511  -21.0511  -12.8701 C   0  0  0  0  0  0  0  0  0  0  0  0
   19.8699  -20.7575  -13.6207 N   0  0  0  0  0  0  0  0  0  0  0  0
   18.7730  -21.3922  -13.1816 C   0  0  0  0  0  0  0  0  0  0  0  0
   19.4251  -20.9671  -17.9387 H   0  0  0  0  0  0  0  0  0  0  0  0
   17.9165  -21.1652  -18.8202 H   0  0  0  0  0  0  0  0  0  0  0  0
   16.6981  -19.7371  -17.3038 H   0  0  0  0  0  0  0  0  0  0  0  0
   19.3700  -19.4674  -15.8199 H   0  0  0  0  0  0  0  0  0  0  0  0
   18.0005  -18.7307  -13.9842 H   0  0  0  0  0  0  0  0  0  0  0  0
   16.6982  -17.3834  -15.3906 H   0  0  0  0  0  0  0  0  0  0  0  0
   15.9282  -20.6006  -14.7714 H   0  0  0  0  0  0  0  0  0  0  0  0
   15.6608  -22.2578  -13.0795 H   0  0  0  0  0  0  0  0  0  0  0  0
   20.8883  -23.3659   -9.8351 H   0  0  0  0  0  0  0  0  0  0  0  0
   19.1641  -23.7550   -9.9130 H   0  0  0  0  0  0  0  0  0  0  0  0
   21.8788  -20.5901  -13.1790 H   0  0  0  0  0  0  0  0  0  0  0  0
  1  2  2  6  0  0  0
  1  3  1  0  0  0  0
  1  4  1  0  0  0  0
  1  9  1  0  0  0  0
  4  5  1  0  0  0  0
  5  6  1  0  0  0  0
  5 23  1  0  0  0  0
  5 24  1  0  0  0  0
  6  7  1  0  0  0  0
  6  8  1  0  0  0  0
  6 25  1  6  0  0  0
  7 12  1  0  0  0  0
  8  9  1  0  0  0  0
  8 10  1  0  0  0  0
  8 26  1  1  0  0  0
 10 11  1  0  0  0  0
 10 12  1  0  0  0  0
 10 27  1  1  0  0  0
 11 28  1  0  0  0  0
 12 13  1  0  0  0  0
 12 29  1  1  0  0  0
 13 14  2  0  0  0  0
 13 22  1  0  0  0  0
 14 15  1  0  0  0  0
 14 30  1  0  0  0  0
 15 16  1  0  0  0  0
 16 17  2  0  0  0  0
 16 22  1  0  0  0  0
 17 18  1  0  0  0  0
 17 19  1  0  0  0  0
 18 31  1  0  0  0  0
 18 32  1  0  0  0  0
 19 20  2  0  0  0  0
 20 21  1  0  0  0  0
 20 33  1  0  0  0  0
 21 22  2  0  0  0  0
M  CHG  1  13   1
M  END
$$$$
