CMP
 OpenBabel04161909403D

 33 36  0  0  1  0  0  0  0  0999 V2000
   31.0718   19.1044   47.1119 P   0  0  2  0  0  0  0  0  0  0  0  0
   31.8803   19.4565   45.8966 O   0  0  0  0  0  0  0  0  0  0  0  0
   31.2860   19.7511   48.4551 O   0  0  0  0  0  0  0  0  0  0  0  0
   31.1134   17.4861   47.3234 O   0  0  0  0  0  0  0  0  0  0  0  0
   30.2049   16.9366   48.2699 C   0  0  0  0  0  0  0  0  0  0  0  0
   28.7975   17.2587   47.8070 C   0  0  1  0  0  0  0  0  0  0  0  0
   27.7198   16.8281   48.6454 O   0  0  0  0  0  0  0  0  0  0  0  0
   28.6390   18.7602   47.7209 C   0  0  1  0  0  0  0  0  0  0  0  0
   29.4881   19.2814   46.7298 O   0  0  0  0  0  0  0  0  0  0  0  0
   27.1601   18.8643   47.4339 C   0  0  1  0  0  0  0  0  0  0  0  0
   26.8847   18.5748   46.0537 O   0  0  0  0  0  0  0  0  0  0  0  0
   26.6192   17.7488   48.3566 C   0  0  2  0  0  0  0  0  0  0  0  0
   26.1017   18.2784   49.6065 N   0  3  0  0  0  0  0  0  0  0  0  0
   26.6928   18.2532   50.8451 C   0  0  0  0  0  0  0  0  0  0  0  0
   25.9601   18.8763   51.7480 N   0  0  0  0  0  0  0  0  0  0  0  0
   24.8557   19.3351   51.0578 C   0  0  0  0  0  0  0  0  0  0  0  0
   23.7263   20.0751   51.4504 C   0  0  0  0  0  0  0  0  0  0  0  0
   23.4923   20.4682   52.7565 N   0  0  0  0  0  0  0  0  0  0  0  0
   22.8109   20.4036   50.5070 N   0  0  0  0  0  0  0  0  0  0  0  0
   23.0155   19.9814   49.2381 C   0  0  0  0  0  0  0  0  0  0  0  0
   24.0360   19.2485   48.7532 N   0  0  0  0  0  0  0  0  0  0  0  0
   24.9275   18.9697   49.7252 C   0  0  0  0  0  0  0  0  0  0  0  0
   30.4118   17.3228   49.2738 H   0  0  0  0  0  0  0  0  0  0  0  0
   30.3533   15.8526   48.3101 H   0  0  0  0  0  0  0  0  0  0  0  0
   28.6648   16.8031   46.8148 H   0  0  0  0  0  0  0  0  0  0  0  0
   28.8362   19.2381   48.6898 H   0  0  0  0  0  0  0  0  0  0  0  0
   26.7568   19.8608   47.6376 H   0  0  0  0  0  0  0  0  0  0  0  0
   27.5548   19.0802   45.5489 H   0  0  0  0  0  0  0  0  0  0  0  0
   25.8202   17.1645   47.8848 H   0  0  0  0  0  0  0  0  0  0  0  0
   27.6479   17.7834   51.0211 H   0  0  0  0  0  0  0  0  0  0  0  0
   22.7968   21.1901   52.8657 H   0  0  0  0  0  0  0  0  0  0  0  0
   24.2961   20.4385   53.3722 H   0  0  0  0  0  0  0  0  0  0  0  0
   22.2533   20.2561   48.5197 H   0  0  0  0  0  0  0  0  0  0  0  0
  1  2  2  6  0  0  0
  1  3  1  0  0  0  0
  1  4  1  0  0  0  0
  1  9  1  0  0  0  0
  4  5  1  0  0  0  0
  5  6  1  0  0  0  0
  5 23  1  0  0  0  0
  5 24  1  0  0  0  0
  6  7  1  0  0  0  0
  6  8  1  0  0  0  0
  6 25  1  6  0  0  0
  7 12  1  0  0  0  0
  8  9  1  0  0  0  0
  8 10  1  0  0  0  0
  8 26  1  1  0  0  0
 10 11  1  0  0  0  0
 10 12  1  0  0  0  0
 10 27  1  1  0  0  0
 11 28  1  0  0  0  0
 12 13  1  0  0  0  0
 12 29  1  6  0  0  0
 13 14  2  0  0  0  0
 13 22  1  0  0  0  0
 14 15  1  0  0  0  0
 14 30  1  0  0  0  0
 15 16  1  0  0  0  0
 16 17  2  0  0  0  0
 16 22  1  0  0  0  0
 17 18  1  0  0  0  0
 17 19  1  0  0  0  0
 18 31  1  0  0  0  0
 18 32  1  0  0  0  0
 19 20  2  0  0  0  0
 20 21  1  0  0  0  0
 20 33  1  0  0  0  0
 21 22  2  0  0  0  0
M  CHG  1  13   1
M  END
$$$$
