CMP
 OpenBabel04161909353D

 33 36  0  0  1  0  0  0  0  0999 V2000
   -6.6765   -6.9497   20.1885 P   0  0  2  0  0  0  0  0  0  0  0  0
   -6.1268   -5.6341   20.6829 O   0  0  0  0  0  0  0  0  0  0  0  0
   -8.1463   -7.1782   19.9461 O   0  0  0  0  0  0  0  0  0  0  0  0
   -6.2006   -8.0901   21.2531 O   0  0  0  0  0  0  0  0  0  0  0  0
   -6.1622   -9.4382   20.8402 C   0  0  0  0  0  0  0  0  0  0  0  0
   -5.3132   -9.5315   19.5905 C   0  0  1  0  0  0  0  0  0  0  0  0
   -5.2018  -10.8644   19.0540 O   0  0  0  0  0  0  0  0  0  0  0  0
   -5.9460   -8.6980   18.5007 C   0  0  1  0  0  0  0  0  0  0  0  0
   -5.8348   -7.3499   18.8523 O   0  0  0  0  0  0  0  0  0  0  0  0
   -5.2145   -9.2181   17.2733 C   0  0  1  0  0  0  0  0  0  0  0  0
   -3.8947   -8.6775   17.1322 O   0  0  0  0  0  0  0  0  0  0  0  0
   -5.1515  -10.7351   17.6051 C   0  0  2  0  0  0  0  0  0  0  0  0
   -6.2343  -11.4912   16.9819 N   0  3  0  0  0  0  0  0  0  0  0  0
   -7.4131  -11.9071   17.5438 C   0  0  0  0  0  0  0  0  0  0  0  0
   -8.2079  -12.4866   16.6525 N   0  0  0  0  0  0  0  0  0  0  0  0
   -7.5186  -12.4068   15.4379 C   0  0  0  0  0  0  0  0  0  0  0  0
   -7.7881  -12.8172   14.0903 C   0  0  0  0  0  0  0  0  0  0  0  0
   -8.9281  -13.4727   13.6439 N   0  0  0  0  0  0  0  0  0  0  0  0
   -6.8562  -12.5841   13.1401 N   0  0  0  0  0  0  0  0  0  0  0  0
   -5.7165  -11.9823   13.4823 C   0  0  0  0  0  0  0  0  0  0  0  0
   -5.3514  -11.5246   14.7019 N   0  0  0  0  0  0  0  0  0  0  0  0
   -6.2912  -11.7805   15.6274 C   0  0  0  0  0  0  0  0  0  0  0  0
   -7.1630   -9.8563   20.6793 H   0  0  0  0  0  0  0  0  0  0  0  0
   -5.7039  -10.0126   21.6525 H   0  0  0  0  0  0  0  0  0  0  0  0
   -4.3161   -9.1326   19.8333 H   0  0  0  0  0  0  0  0  0  0  0  0
   -7.0094   -8.9295   18.3619 H   0  0  0  0  0  0  0  0  0  0  0  0
   -5.7603   -9.0314   16.3460 H   0  0  0  0  0  0  0  0  0  0  0  0
   -3.5024   -9.0679   16.3319 H   0  0  0  0  0  0  0  0  0  0  0  0
   -4.1944  -11.1727   17.2821 H   0  0  0  0  0  0  0  0  0  0  0  0
   -7.6590  -11.7468   18.5928 H   0  0  0  0  0  0  0  0  0  0  0  0
   -8.9735  -13.6778   12.6582 H   0  0  0  0  0  0  0  0  0  0  0  0
   -9.6332  -13.6931   14.3139 H   0  0  0  0  0  0  0  0  0  0  0  0
   -4.9802  -11.8752   12.6924 H   0  0  0  0  0  0  0  0  0  0  0  0
  1  2  2  1  0  0  0
  1  3  1  0  0  0  0
  1  4  1  0  0  0  0
  1  9  1  0  0  0  0
  4  5  1  0  0  0  0
  5  6  1  0  0  0  0
  5 23  1  0  0  0  0
  5 24  1  0  0  0  0
  6  7  1  0  0  0  0
  6  8  1  0  0  0  0
  6 25  1  1  0  0  0
  7 12  1  0  0  0  0
  8  9  1  0  0  0  0
  8 10  1  0  0  0  0
  8 26  1  6  0  0  0
 10 11  1  0  0  0  0
 10 12  1  0  0  0  0
 10 27  1  6  0  0  0
 11 28  1  0  0  0  0
 12 13  1  0  0  0  0
 12 29  1  6  0  0  0
 13 14  2  0  0  0  0
 13 22  1  0  0  0  0
 14 15  1  0  0  0  0
 14 30  1  0  0  0  0
 15 16  1  0  0  0  0
 16 17  2  0  0  0  0
 16 22  1  0  0  0  0
 17 18  1  0  0  0  0
 17 19  1  0  0  0  0
 18 31  1  0  0  0  0
 18 32  1  0  0  0  0
 19 20  2  0  0  0  0
 20 21  1  0  0  0  0
 20 33  1  0  0  0  0
 21 22  2  0  0  0  0
M  CHG  1  13   1
M  END
$$$$
