CRP
 OpenBabel04161912263D

 38 39  0  0  1  0  0  0  0  0999 V2000
   30.9487    8.8446   35.4941 C   0  0  0  0  0  0  0  0  0  0  0  0
   30.9978    9.2926   34.1875 C   0  0  0  0  0  0  0  0  0  0  0  0
   30.4381   10.5160   33.8483 C   0  0  0  0  0  0  0  0  0  0  0  0
   29.8139   11.3066   34.7996 C   0  0  0  0  0  0  0  0  0  0  0  0
   29.7589   10.8390   36.1075 C   0  0  0  0  0  0  0  0  0  0  0  0
   30.3281    9.6166   36.4542 C   0  0  0  0  0  0  0  0  0  0  0  0
   29.2355   12.6463   34.4097 C   0  0  1  0  0  0  0  0  0  0  0  0
   30.3753   13.6372   34.2278 C   0  0  0  0  0  0  0  0  0  0  0  0
   28.4555   12.5264   33.1829 N   0  0  0  0  0  0  0  0  0  0  0  0
   27.1282   12.1490   33.2588 C   0  0  0  0  0  0  0  0  0  0  0  0
   26.5362   12.0266   34.3024 O   0  0  0  0  0  0  0  0  0  0  0  0
   26.4340   11.8413   31.9506 C   0  0  1  0  0  0  0  0  0  0  0  0
   25.4483   12.9359   31.4827 C   0  0  0  0  0  0  0  0  0  0  0  0
   26.7262   12.7019   30.6873 C   0  0  2  0  0  0  0  0  0  0  0  0
   27.0664    9.3139   31.6236 C   0  0  0  0  0  0  0  0  0  0  0  0
   25.9745   10.3618   31.8549 C   0  0  0  0  0  0  0  0  0  0  0  0
   26.6600   12.2033   29.2693 C   0  0  0  0  0  0  0  0  0  0  0  0
   31.6532    7.3423   35.9191 Cl  0  0  0  0  0  0  0  0  0  0  0  0
   25.3639   14.5185   32.3060 Cl  0  0  0  0  0  0  0  0  0  0  0  0
   23.8819   12.4957   30.7428 Cl  0  0  0  0  0  0  0  0  0  0  0  0
   31.4724    8.6983   33.4205 H   0  0  0  0  0  0  0  0  0  0  0  0
   30.4803   10.8592   32.8200 H   0  0  0  0  0  0  0  0  0  0  0  0
   29.2613   11.4250   36.8702 H   0  0  0  0  0  0  0  0  0  0  0  0
   30.2824    9.2726   37.4802 H   0  0  0  0  0  0  0  0  0  0  0  0
   28.5767   13.0035   35.2071 H   0  0  0  0  0  0  0  0  0  0  0  0
   29.9819   14.6180   33.9415 H   0  0  0  0  0  0  0  0  0  0  0  0
   31.0615   13.2949   33.4423 H   0  0  0  0  0  0  0  0  0  0  0  0
   30.9409   13.7404   35.1620 H   0  0  0  0  0  0  0  0  0  0  0  0
   28.9054   12.6752   32.2961 H   0  0  0  0  0  0  0  0  0  0  0  0
   27.5279   13.4374   30.7868 H   0  0  0  0  0  0  0  0  0  0  0  0
   26.6271    8.3003   31.5902 H   0  0  0  0  0  0  0  0  0  0  0  0
   27.8105    9.3240   32.4288 H   0  0  0  0  0  0  0  0  0  0  0  0
   27.5789    9.4854   30.6710 H   0  0  0  0  0  0  0  0  0  0  0  0
   25.2452   10.2489   31.0495 H   0  0  0  0  0  0  0  0  0  0  0  0
   25.4772   10.1014   32.8015 H   0  0  0  0  0  0  0  0  0  0  0  0
   27.6675   12.0864   28.8395 H   0  0  0  0  0  0  0  0  0  0  0  0
   26.1135   12.9113   28.6247 H   0  0  0  0  0  0  0  0  0  0  0  0
   26.1564   11.2334   29.2039 H   0  0  0  0  0  0  0  0  0  0  0  0
  1  6  2  0  0  0  0
  1  2  1  0  0  0  0
  1 18  1  0  0  0  0
  2  3  2  0  0  0  0
  2 21  1  0  0  0  0
  3  4  1  0  0  0  0
  3 22  1  0  0  0  0
  4  7  1  0  0  0  0
  4  5  2  0  0  0  0
  5  6  1  0  0  0  0
  5 23  1  0  0  0  0
  6 24  1  0  0  0  0
  7  9  1  0  0  0  0
  7  8  1  0  0  0  0
  7 25  1  1  0  0  0
  8 26  1  0  0  0  0
  8 27  1  0  0  0  0
  8 28  1  0  0  0  0
  9 10  1  0  0  0  0
  9 29  1  0  0  0  0
 10 11  2  0  0  0  0
 12 10  1  1  0  0  0
 12 16  1  0  0  0  0
 12 14  1  0  0  0  0
 12 13  1  0  0  0  0
 13 14  1  0  0  0  0
 13 19  1  0  0  0  0
 13 20  1  0  0  0  0
 14 17  1  0  0  0  0
 14 30  1  1  0  0  0
 15 16  1  0  0  0  0
 15 31  1  0  0  0  0
 15 32  1  0  0  0  0
 15 33  1  0  0  0  0
 16 34  1  0  0  0  0
 16 35  1  0  0  0  0
 17 36  1  0  0  0  0
 17 37  1  0  0  0  0
 17 38  1  0  0  0  0
M  END
$$$$
