CU8
 OpenBabel04161912183D

 31 33  0  0  0  0  0  0  0  0999 V2000
   60.4754  -31.8484   39.4935 O   0  0  0  0  0  0  0  0  0  0  0  0
   61.2095  -31.5148   38.5657 C   0  0  0  0  0  0  0  0  0  0  0  0
   62.5669  -31.6657   38.6563 N   0  0  0  0  0  0  0  0  0  0  0  0
   60.7263  -30.9509   37.3810 C   0  0  0  0  0  0  0  0  0  0  0  0
   61.4706  -30.7508   36.2541 C   0  0  0  0  0  0  0  0  0  0  0  0
   60.5892  -30.1660   35.3436 N   0  3  0  0  0  0  0  0  0  0  0  0
   59.3315  -30.0116   35.8623 N   0  0  0  0  0  0  0  0  0  0  0  0
   59.4249  -30.4978   37.0975 C   0  0  0  0  0  0  0  0  0  0  0  0
   62.7905  -31.0019   35.9635 N   0  0  0  0  0  0  0  0  0  0  0  0
   63.1935  -30.6616   34.7798 C   0  0  0  0  0  0  0  0  0  0  0  0
   62.3458  -30.0282   33.7462 C   0  0  0  0  0  0  0  0  0  0  0  0
   61.0637  -29.8092   34.0866 C   0  0  0  0  0  0  0  0  0  0  0  0
   60.1691  -29.1437   33.1646 C   0  0  0  0  0  0  0  0  0  0  0  0
   59.4078  -28.0695   33.6345 C   0  0  0  0  0  0  0  0  0  0  0  0
   58.5201  -27.4241   32.7993 C   0  0  0  0  0  0  0  0  0  0  0  0
   58.4117  -27.8364   31.4841 C   0  0  0  0  0  0  0  0  0  0  0  0
   59.1715  -28.9089   31.0125 C   0  0  0  0  0  0  0  0  0  0  0  0
   59.0291  -29.3155   29.5915 C   0  0  0  0  0  0  0  0  0  0  0  0
   60.0476  -29.5778   31.8540 C   0  0  0  0  0  0  0  0  0  0  0  0
   63.1459  -31.4155   37.8568 H   0  0  0  0  0  0  0  0  0  0  0  0
   62.9511  -32.0724   39.4796 H   0  0  0  0  0  0  0  0  0  0  0  0
   58.5450  -30.4882   37.7346 H   0  0  0  0  0  0  0  0  0  0  0  0
   64.2457  -30.8367   34.4858 H   0  0  0  0  0  0  0  0  0  0  0  0
   62.7778  -29.7592   32.7973 H   0  0  0  0  0  0  0  0  0  0  0  0
   59.4964  -27.7429   34.6684 H   0  0  0  0  0  0  0  0  0  0  0  0
   57.9255  -26.6034   33.1752 H   0  0  0  0  0  0  0  0  0  0  0  0
   57.7317  -27.3201   30.8154 H   0  0  0  0  0  0  0  0  0  0  0  0
   59.6817  -30.1628   29.3725 H   0  0  0  0  0  0  0  0  0  0  0  0
   59.3071  -28.4721   28.9548 H   0  0  0  0  0  0  0  0  0  0  0  0
   57.9911  -29.6009   29.4074 H   0  0  0  0  0  0  0  0  0  0  0  0
   60.6328  -30.4214   31.4957 H   0  0  0  0  0  0  0  0  0  0  0  0
  1  2  2  0  0  0  0
  2  3  1  0  0  0  0
  2  4  1  0  0  0  0
  3 20  1  0  0  0  0
  3 21  1  0  0  0  0
  4  5  1  0  0  0  0
  4  8  2  0  0  0  0
  5  6  2  0  0  0  0
  5  9  1  0  0  0  0
  6  7  1  0  0  0  0
  6 12  1  0  0  0  0
  7  8  1  0  0  0  0
  8 22  1  0  0  0  0
  9 10  2  0  0  0  0
 10 11  1  0  0  0  0
 10 23  1  0  0  0  0
 11 12  2  0  0  0  0
 11 24  1  0  0  0  0
 12 13  1  0  0  0  0
 13 14  2  0  0  0  0
 13 19  1  0  0  0  0
 14 15  1  0  0  0  0
 14 25  1  0  0  0  0
 15 16  2  0  0  0  0
 15 26  1  0  0  0  0
 16 17  1  0  0  0  0
 16 27  1  0  0  0  0
 17 18  1  0  0  0  0
 17 19  2  0  0  0  0
 18 28  1  0  0  0  0
 18 29  1  0  0  0  0
 18 30  1  0  0  0  0
 19 31  1  0  0  0  0
M  CHG  1   6   1
M  END
$$$$
