CWJ
 OpenBabel04161912213D

 23 24  0  0  1  0  0  0  0  0999 V2000
  -38.1925   32.3557   54.7514 C   0  0  2  0  0  0  0  0  0  0  0  0
  -38.3892   31.1699   54.0481 C   0  0  1  0  0  0  0  0  0  0  0  0
  -34.9107   30.2029   51.7331 C   0  0  0  0  0  0  0  0  0  0  0  0
  -41.8153   32.0896   55.1922 C   0  0  0  0  0  0  0  0  0  0  0  0
  -36.9340   32.9439   54.9170 C   0  0  0  0  0  0  0  0  0  0  0  0
  -37.2713   30.5356   53.4623 C   0  0  0  0  0  0  0  0  0  0  0  0
  -39.7811   30.8793   54.1115 C   0  0  0  0  0  0  0  0  0  0  0  0
  -40.3966   31.8809   54.8307 C   0  0  1  0  0  0  0  0  0  0  0  0
  -35.8427   32.2923   54.3332 C   0  0  0  0  0  0  0  0  0  0  0  0
  -36.0061   31.1199   53.5965 C   0  0  1  0  0  0  0  0  0  0  0  0
  -39.4205   32.7696   55.2163 N   0  3  0  0  0  0  0  0  0  0  0  0
  -34.8635   30.5293   53.1211 O   0  0  0  0  0  0  0  0  0  0  0  0
  -33.9711   29.7000   51.4808 H   0  0  0  0  0  0  0  0  0  0  0  0
  -34.9767   31.1119   51.1258 H   0  0  0  0  0  0  0  0  0  0  0  0
  -35.7228   29.5137   51.4829 H   0  0  0  0  0  0  0  0  0  0  0  0
  -42.4406   31.2825   54.7955 H   0  0  0  0  0  0  0  0  0  0  0  0
  -42.1808   33.0361   54.7821 H   0  0  0  0  0  0  0  0  0  0  0  0
  -41.9379   32.1128   56.2796 H   0  0  0  0  0  0  0  0  0  0  0  0
  -36.8079   33.8579   55.4818 H   0  0  0  0  0  0  0  0  0  0  0  0
  -37.4020   29.5887   52.9510 H   0  0  0  0  0  0  0  0  0  0  0  0
  -40.2810   30.0244   53.6727 H   0  0  0  0  0  0  0  0  0  0  0  0
  -34.8489   32.7160   54.4607 H   0  0  0  0  0  0  0  0  0  0  0  0
  -39.5739   33.6030   55.7602 H   0  0  0  0  0  0  0  0  0  0  0  0
  1  2  1  0  0  0  0
  1  5  1  1  0  0  0
  1 11  1  0  0  0  0
  2  6  1  1  0  0  0
  2  7  1  0  0  0  0
  3 12  1  0  0  0  0
  3 13  1  0  0  0  0
  3 14  1  0  0  0  0
  3 15  1  0  0  0  0
  4 16  1  0  0  0  0
  4 17  1  0  0  0  0
  4 18  1  0  0  0  0
  5  9  1  0  0  0  0
  5 19  1  0  0  0  0
  6 10  1  0  0  0  0
  6 20  1  0  0  0  0
  7  8  1  0  0  0  0
  7 21  1  0  0  0  0
  8  4  1  6  0  0  0
  8 11  1  0  0  0  0
  9 10  1  0  0  0  0
  9 22  1  0  0  0  0
 10 12  1  1  0  0  0
 11 23  1  0  0  0  0
M  CHG  1  11   1
M  END
$$$$
