CWM
 OpenBabel04161912213D

 19 20  0  0  0  0  0  0  0  0999 V2000
  -34.1978  -32.4195   55.2923 C   0  0  0  0  0  0  0  0  0  0  0  0
  -35.2681  -32.6833   54.4323 C   0  0  0  0  0  0  0  0  0  0  0  0
  -35.9690  -33.8951   54.4842 C   0  0  0  0  0  0  0  0  0  0  0  0
  -35.4279  -37.8897   57.4079 C   0  0  0  0  0  0  0  0  0  0  0  0
  -33.7949  -33.3723   56.2356 C   0  0  0  0  0  0  0  0  0  0  0  0
  -34.4843  -34.6000   56.3067 C   0  0  0  0  0  0  0  0  0  0  0  0
  -35.5482  -34.8258   55.4374 C   0  0  0  0  0  0  0  0  0  0  0  0
  -35.2180  -36.5616   56.7893 C   0  0  0  0  0  0  0  0  0  0  0  0
  -34.2970  -35.6872   57.1299 N   0  0  0  0  0  0  0  0  0  0  0  0
  -35.9950  -36.0818   55.7643 N   0  3  0  0  0  0  0  0  0  0  0  0
  -32.7451  -33.1045   57.0786 O   0  0  0  0  0  0  0  0  0  0  0  0
  -33.6856  -31.4647   55.2178 H   0  0  0  0  0  0  0  0  0  0  0  0
  -35.5653  -31.9286   53.7066 H   0  0  0  0  0  0  0  0  0  0  0  0
  -36.7995  -34.0929   53.8159 H   0  0  0  0  0  0  0  0  0  0  0  0
  -34.6899  -38.0505   58.2006 H   0  0  0  0  0  0  0  0  0  0  0  0
  -35.3134  -38.6893   56.6702 H   0  0  0  0  0  0  0  0  0  0  0  0
  -36.4246  -37.9587   57.8540 H   0  0  0  0  0  0  0  0  0  0  0  0
  -36.7687  -36.5646   55.3311 H   0  0  0  0  0  0  0  0  0  0  0  0
  -32.4086  -32.2157   56.8918 H   0  0  0  0  0  0  0  0  0  0  0  0
  1  2  2  0  0  0  0
  1  5  1  0  0  0  0
  1 12  1  0  0  0  0
  2  3  1  0  0  0  0
  2 13  1  0  0  0  0
  3  7  2  0  0  0  0
  3 14  1  0  0  0  0
  4  8  1  0  0  0  0
  4 15  1  0  0  0  0
  4 16  1  0  0  0  0
  4 17  1  0  0  0  0
  5  6  2  0  0  0  0
  5 11  1  0  0  0  0
  6  7  1  0  0  0  0
  6  9  1  0  0  0  0
  7 10  1  0  0  0  0
  8  9  1  0  0  0  0
  8 10  2  0  0  0  0
 10 18  1  0  0  0  0
 11 19  1  0  0  0  0
M  CHG  1  10   1
M  END
$$$$
