CXS
 OpenBabel04161909473D

 33 33  0  0  0  0  0  0  0  0999 V2000
   19.2444   17.2578   34.9146 S   0  0  0  0  0  0  0  0  0  0  0  0
   20.3510   18.1780   34.7212 O   0  0  0  0  0  0  0  0  0  0  0  0
   19.5161   15.8749   34.5582 O   0  0  0  0  0  0  0  0  0  0  0  0
   18.4823   17.4304   36.1568 O   0  0  0  0  0  0  0  0  0  0  0  0
   18.0440   17.7815   33.6712 C   0  0  0  0  0  0  0  0  0  0  0  0
   17.0927   16.6560   33.2912 C   0  0  0  0  0  0  0  0  0  0  0  0
   15.8383   17.1845   32.6303 C   0  0  0  0  0  0  0  0  0  0  0  0
   15.4841   16.2827   31.4803 N   0  3  0  0  0  0  0  0  0  0  0  0
   14.0540   15.8583   31.3543 C   0  0  0  0  0  0  0  0  0  0  0  0
   13.9626   15.0367   30.0643 C   0  0  0  0  0  0  0  0  0  0  0  0
   12.5306   14.7877   29.6131 C   0  0  0  0  0  0  0  0  0  0  0  0
   11.7156   16.0725   29.5624 C   0  0  0  0  0  0  0  0  0  0  0  0
   11.7362   16.7734   30.9116 C   0  0  0  0  0  0  0  0  0  0  0  0
   13.1613   17.0972   31.3311 C   0  0  0  0  0  0  0  0  0  0  0  0
   18.5891   18.0994   32.7774 H   0  0  0  0  0  0  0  0  0  0  0  0
   17.4856   18.6453   34.0487 H   0  0  0  0  0  0  0  0  0  0  0  0
   16.7899   16.0872   34.1780 H   0  0  0  0  0  0  0  0  0  0  0  0
   17.6234   15.9637   32.6267 H   0  0  0  0  0  0  0  0  0  0  0  0
   15.9535   18.1865   32.2052 H   0  0  0  0  0  0  0  0  0  0  0  0
   14.9986   17.1806   33.3318 H   0  0  0  0  0  0  0  0  0  0  0  0
   15.7788   16.7493   30.6127 H   0  0  0  0  0  0  0  0  0  0  0  0
   13.8294   15.2271   32.2234 H   0  0  0  0  0  0  0  0  0  0  0  0
   14.4644   14.0707   30.2055 H   0  0  0  0  0  0  0  0  0  0  0  0
   14.4943   15.5550   29.2560 H   0  0  0  0  0  0  0  0  0  0  0  0
   12.0533   14.0826   30.3026 H   0  0  0  0  0  0  0  0  0  0  0  0
   12.5420   14.3239   28.6207 H   0  0  0  0  0  0  0  0  0  0  0  0
   10.6829   15.8420   29.2817 H   0  0  0  0  0  0  0  0  0  0  0  0
   12.1237   16.7413   28.7942 H   0  0  0  0  0  0  0  0  0  0  0  0
   11.2676   16.1316   31.6675 H   0  0  0  0  0  0  0  0  0  0  0  0
   11.1529   17.6989   30.8586 H   0  0  0  0  0  0  0  0  0  0  0  0
   13.5786   17.8432   30.6434 H   0  0  0  0  0  0  0  0  0  0  0  0
   13.1304   17.5569   32.3247 H   0  0  0  0  0  0  0  0  0  0  0  0
   16.0593   15.4311   31.5376 H   0  0  0  0  0  0  0  0  0  0  0  0
  1  2  2  0  0  0  0
  1  3  2  0  0  0  0
  1  4  1  0  0  0  0
  1  5  1  0  0  0  0
  5  6  1  0  0  0  0
  5 15  1  0  0  0  0
  5 16  1  0  0  0  0
  6  7  1  0  0  0  0
  6 17  1  0  0  0  0
  6 18  1  0  0  0  0
  7  8  1  0  0  0  0
  7 19  1  0  0  0  0
  7 20  1  0  0  0  0
  8  9  1  0  0  0  0
  8 21  1  0  0  0  0
  8 33  1  0  0  0  0
  9 10  1  0  0  0  0
  9 14  1  0  0  0  0
  9 22  1  0  0  0  0
 10 11  1  0  0  0  0
 10 23  1  0  0  0  0
 10 24  1  0  0  0  0
 11 12  1  0  0  0  0
 11 25  1  0  0  0  0
 11 26  1  0  0  0  0
 12 13  1  0  0  0  0
 12 27  1  0  0  0  0
 12 28  1  0  0  0  0
 13 14  1  0  0  0  0
 13 29  1  0  0  0  0
 13 30  1  0  0  0  0
 14 31  1  0  0  0  0
 14 32  1  0  0  0  0
M  CHG  1   8   1
M  END
$$$$
