CZE
 OpenBabel04161909553D

 52 54  0  0  1  0  0  0  0  0999 V2000
  -22.3952   15.2960  -15.5455 O   0  0  0  0  0  0  0  0  0  0  0  0
  -22.8342   15.3566  -16.7130 C   0  0  0  0  0  0  0  0  0  0  0  0
  -23.7962   16.0705  -17.1656 O   0  0  0  0  0  0  0  0  0  0  0  0
  -22.2472   14.3363  -17.7134 C   0  0  0  0  0  0  0  0  0  0  0  0
  -23.1109   14.1067  -18.8599 O   0  0  0  0  0  0  0  0  0  0  0  0
  -24.1892   13.2108  -18.5951 C   0  0  0  0  0  0  0  0  0  0  0  0
  -25.4448   13.6768  -19.3565 C   0  0  0  0  0  0  0  0  0  0  0  0
  -26.6457   12.8716  -19.0128 N   0  0  0  0  0  0  0  0  0  0  0  0
  -27.7904   13.3320  -19.8089 C   0  0  0  0  0  0  0  0  0  0  0  0
  -29.0492   12.5464  -19.4271 C   0  0  0  0  0  0  0  0  0  0  0  0
  -26.9362   13.0345  -17.5760 C   0  0  0  0  0  0  0  0  0  0  0  0
  -28.2318   12.3711  -17.1412 C   0  0  0  0  0  0  0  0  0  0  0  0
  -29.3763   12.8438  -17.9842 N   0  3  0  0  0  0  0  0  0  0  0  0
  -30.6582   12.1672  -17.5634 C   0  0  2  0  0  0  0  0  0  0  0  0
  -31.8810   12.6994  -18.2746 C   0  0  0  0  0  0  0  0  0  0  0  0
  -32.7855   11.8206  -18.8748 C   0  0  0  0  0  0  0  0  0  0  0  0
  -33.9444   12.3177  -19.4767 C   0  0  0  0  0  0  0  0  0  0  0  0
  -34.1895   13.6884  -19.4793 C   0  0  0  0  0  0  0  0  0  0  0  0
  -35.6040   14.3318  -20.2180 Cl  0  0  0  0  0  0  0  0  0  0  0  0
  -33.2936   14.5704  -18.8879 C   0  0  0  0  0  0  0  0  0  0  0  0
  -32.1403   14.0783  -18.2884 C   0  0  0  0  0  0  0  0  0  0  0  0
  -30.8817   12.1553  -16.0614 C   0  0  0  0  0  0  0  0  0  0  0  0
  -30.8500   13.3492  -15.3149 C   0  0  0  0  0  0  0  0  0  0  0  0
  -31.0412   13.3281  -13.9385 C   0  0  0  0  0  0  0  0  0  0  0  0
  -31.2931   12.1259  -13.2904 C   0  0  0  0  0  0  0  0  0  0  0  0
  -31.3331   10.9389  -14.0232 C   0  0  0  0  0  0  0  0  0  0  0  0
  -31.1217   10.9539  -15.4031 C   0  0  0  0  0  0  0  0  0  0  0  0
  -22.0156   13.3875  -17.2079 H   0  0  0  0  0  0  0  0  0  0  0  0
  -21.2978   14.7469  -18.0956 H   0  0  0  0  0  0  0  0  0  0  0  0
  -24.4044   13.1308  -17.5295 H   0  0  0  0  0  0  0  0  0  0  0  0
  -23.9037   12.2212  -18.9702 H   0  0  0  0  0  0  0  0  0  0  0  0
  -25.2479   13.5979  -20.4331 H   0  0  0  0  0  0  0  0  0  0  0  0
  -25.6196   14.7389  -19.1390 H   0  0  0  0  0  0  0  0  0  0  0  0
  -27.6046   13.1684  -20.8663 H   0  0  0  0  0  0  0  0  0  0  0  0
  -27.9754   14.4006  -19.6290 H   0  0  0  0  0  0  0  0  0  0  0  0
  -28.8837   11.4568  -19.4947 H   0  0  0  0  0  0  0  0  0  0  0  0
  -29.9051   12.8327  -20.0343 H   0  0  0  0  0  0  0  0  0  0  0  0
  -26.9978   14.1026  -17.3193 H   0  0  0  0  0  0  0  0  0  0  0  0
  -26.1645   12.5557  -16.9769 H   0  0  0  0  0  0  0  0  0  0  0  0
  -28.4437   12.6284  -16.1065 H   0  0  0  0  0  0  0  0  0  0  0  0
  -28.1793   11.2769  -17.2669 H   0  0  0  0  0  0  0  0  0  0  0  0
  -30.5073   11.1166  -17.8973 H   0  0  0  0  0  0  0  0  0  0  0  0
  -32.6072   10.7457  -18.8633 H   0  0  0  0  0  0  0  0  0  0  0  0
  -34.6516   11.6325  -19.9406 H   0  0  0  0  0  0  0  0  0  0  0  0
  -33.4886   15.6400  -18.8900 H   0  0  0  0  0  0  0  0  0  0  0  0
  -31.4653   14.7805  -17.8152 H   0  0  0  0  0  0  0  0  0  0  0  0
  -30.6434   14.2958  -15.8005 H   0  0  0  0  0  0  0  0  0  0  0  0
  -31.0032   14.2573  -13.3731 H   0  0  0  0  0  0  0  0  0  0  0  0
  -31.4612   12.1112  -12.2125 H   0  0  0  0  0  0  0  0  0  0  0  0
  -31.5305   10.0018  -13.5155 H   0  0  0  0  0  0  0  0  0  0  0  0
  -31.1578   10.0123  -15.9505 H   0  0  0  0  0  0  0  0  0  0  0  0
  -29.4428   13.8783  -17.8813 H   0  0  0  0  0  0  0  0  0  0  0  0
  1  2  2  0  0  0  0
  2  3  1  0  0  0  0
  2  4  1  0  0  0  0
  4  5  1  0  0  0  0
  4 28  1  0  0  0  0
  4 29  1  0  0  0  0
  5  6  1  0  0  0  0
  6  7  1  0  0  0  0
  6 30  1  0  0  0  0
  6 31  1  0  0  0  0
  7  8  1  0  0  0  0
  7 32  1  0  0  0  0
  7 33  1  0  0  0  0
  8  9  1  0  0  0  0
  8 11  1  0  0  0  0
  9 10  1  0  0  0  0
  9 34  1  0  0  0  0
  9 35  1  0  0  0  0
 10 13  1  0  0  0  0
 10 36  1  0  0  0  0
 10 37  1  0  0  0  0
 11 12  1  0  0  0  0
 11 38  1  0  0  0  0
 11 39  1  0  0  0  0
 12 13  1  0  0  0  0
 12 40  1  0  0  0  0
 12 41  1  0  0  0  0
 13 14  1  0  0  0  0
 13 52  1  0  0  0  0
 14 15  1  0  0  0  0
 14 22  1  0  0  0  0
 14 42  1  6  0  0  0
 15 16  2  0  0  0  0
 15 21  1  0  0  0  0
 16 17  1  0  0  0  0
 16 43  1  0  0  0  0
 17 18  2  0  0  0  0
 17 44  1  0  0  0  0
 18 19  1  0  0  0  0
 18 20  1  0  0  0  0
 20 21  2  0  0  0  0
 20 45  1  0  0  0  0
 21 46  1  0  0  0  0
 22 23  2  0  0  0  0
 22 27  1  0  0  0  0
 23 24  1  0  0  0  0
 23 47  1  0  0  0  0
 24 25  2  0  0  0  0
 24 48  1  0  0  0  0
 25 26  1  0  0  0  0
 25 49  1  0  0  0  0
 26 27  2  0  0  0  0
 26 50  1  0  0  0  0
 27 51  1  0  0  0  0
M  CHG  1  13   1
M  END
$$$$
