DB8
 OpenBabel04161912093D

 66 69  0  0  0  0  0  0  0  0999 V2000
  -14.9122   -5.8991   -1.6353 C   0  0  0  0  0  0  0  0  0  0  0  0
  -20.8249    0.2417   -5.2698 O   0  0  0  0  0  0  0  0  0  0  0  0
   -9.3698   -4.3644   -1.9802 C   0  0  0  0  0  0  0  0  0  0  0  0
  -19.5432    1.4603   -1.5417 N   0  0  0  0  0  0  0  0  0  0  0  0
  -23.3920   -0.1540   -3.8960 Cl  0  0  0  0  0  0  0  0  0  0  0  0
  -20.5528   -2.9418   -0.2896 Cl  0  0  0  0  0  0  0  0  0  0  0  0
  -18.5322    0.8512   -1.5792 C   0  0  0  0  0  0  0  0  0  0  0  0
  -16.1267    0.9408   -1.5894 C   0  0  0  0  0  0  0  0  0  0  0  0
  -21.8101   -1.5499   -2.2259 C   0  0  0  0  0  0  0  0  0  0  0  0
  -19.4965   -1.0660   -3.6934 C   0  0  0  0  0  0  0  0  0  0  0  0
  -13.3473   -1.3544   -1.5952 C   0  0  0  0  0  0  0  0  0  0  0  0
  -15.4251   -3.1503   -1.7991 C   0  0  0  0  0  0  0  0  0  0  0  0
   -9.4990   -3.2702   -0.9218 C   0  0  0  0  0  0  0  0  0  0  0  0
  -10.7247   -2.4010   -1.1732 C   0  0  0  0  0  0  0  0  0  0  0  0
   -5.0242   -8.0507   -1.5798 C   0  0  0  0  0  0  0  0  0  0  0  0
   -8.1580   -6.2464   -2.8179 C   0  0  0  0  0  0  0  0  0  0  0  0
   -7.5801   -5.3617   -0.6295 C   0  0  0  0  0  0  0  0  0  0  0  0
   -6.8389   -7.0185   -2.9017 C   0  0  0  0  0  0  0  0  0  0  0  0
   -6.2272   -6.0751   -0.6945 C   0  0  0  0  0  0  0  0  0  0  0  0
  -14.8538    0.4661   -1.5863 N   0  0  0  0  0  0  0  0  0  0  0  0
  -18.1484   -2.1469   -2.0008 N   0  0  0  0  0  0  0  0  0  0  0  0
  -13.8169   -4.9879   -1.7792 O   0  0  0  0  0  0  0  0  0  0  0  0
  -11.8001   -3.2522   -1.5697 O   0  0  0  0  0  0  0  0  0  0  0  0
  -20.6998   -0.5298   -4.1448 C   0  0  0  0  0  0  0  0  0  0  0  0
  -21.8592   -0.7816   -3.3961 C   0  0  0  0  0  0  0  0  0  0  0  0
  -20.6001   -2.0688   -1.7799 C   0  0  0  0  0  0  0  0  0  0  0  0
  -17.2703    0.1674   -1.6494 C   0  0  0  0  0  0  0  0  0  0  0  0
  -19.4231   -1.8220   -2.5054 C   0  0  0  0  0  0  0  0  0  0  0  0
  -14.1187   -3.6433   -1.7413 C   0  0  0  0  0  0  0  0  0  0  0  0
  -13.0617   -2.7273   -1.6336 C   0  0  0  0  0  0  0  0  0  0  0  0
  -17.0755   -1.2402   -1.7521 C   0  0  0  0  0  0  0  0  0  0  0  0
  -14.6558   -0.8611   -1.6313 C   0  0  0  0  0  0  0  0  0  0  0  0
  -15.7352   -1.7645   -1.7277 C   0  0  0  0  0  0  0  0  0  0  0  0
   -8.0627   -5.0373   -1.9790 N   0  0  0  0  0  0  0  0  0  0  0  0
   -6.3340   -7.3422   -1.5126 N   0  3  0  0  0  0  0  0  0  0  0  0
  -19.6400    0.5978   -5.9732 C   0  0  0  0  0  0  0  0  0  0  0  0
  -14.5279   -6.9233   -1.6788 H   0  0  0  0  0  0  0  0  0  0  0  0
  -15.6357   -5.7998   -2.4533 H   0  0  0  0  0  0  0  0  0  0  0  0
  -15.4048   -5.7695   -0.6642 H   0  0  0  0  0  0  0  0  0  0  0  0
   -9.5217   -3.9245   -2.9738 H   0  0  0  0  0  0  0  0  0  0  0  0
  -10.1674   -5.1039   -1.8222 H   0  0  0  0  0  0  0  0  0  0  0  0
  -16.2054    2.0273   -1.5636 H   0  0  0  0  0  0  0  0  0  0  0  0
  -22.7179   -1.7131   -1.6554 H   0  0  0  0  0  0  0  0  0  0  0  0
  -18.5660   -0.8635   -4.2164 H   0  0  0  0  0  0  0  0  0  0  0  0
  -12.5401   -0.6266   -1.5298 H   0  0  0  0  0  0  0  0  0  0  0  0
  -16.2398   -3.8511   -1.9045 H   0  0  0  0  0  0  0  0  0  0  0  0
   -8.5982   -2.6454   -0.8905 H   0  0  0  0  0  0  0  0  0  0  0  0
   -9.6041   -3.7454    0.0631 H   0  0  0  0  0  0  0  0  0  0  0  0
  -10.4869   -1.6866   -1.9697 H   0  0  0  0  0  0  0  0  0  0  0  0
  -10.9672   -1.8644   -0.2494 H   0  0  0  0  0  0  0  0  0  0  0  0
   -5.1653   -8.9617   -2.1646 H   0  0  0  0  0  0  0  0  0  0  0  0
   -4.7172   -8.2887   -0.5599 H   0  0  0  0  0  0  0  0  0  0  0  0
   -4.3030   -7.3844   -2.0623 H   0  0  0  0  0  0  0  0  0  0  0  0
   -8.9304   -6.9168   -2.4185 H   0  0  0  0  0  0  0  0  0  0  0  0
   -8.4407   -5.9617   -3.8364 H   0  0  0  0  0  0  0  0  0  0  0  0
   -7.4100   -4.4446   -0.0548 H   0  0  0  0  0  0  0  0  0  0  0  0
   -8.3144   -5.9715   -0.0878 H   0  0  0  0  0  0  0  0  0  0  0  0
   -6.0640   -6.4234   -3.3967 H   0  0  0  0  0  0  0  0  0  0  0  0
   -6.9792   -7.9694   -3.4228 H   0  0  0  0  0  0  0  0  0  0  0  0
   -5.8851   -6.3537    0.3047 H   0  0  0  0  0  0  0  0  0  0  0  0
   -5.4860   -5.4380   -1.1906 H   0  0  0  0  0  0  0  0  0  0  0  0
  -18.0996   -3.0573   -1.5502 H   0  0  0  0  0  0  0  0  0  0  0  0
  -19.9277    1.1970   -6.8434 H   0  0  0  0  0  0  0  0  0  0  0  0
  -19.1203   -0.2915   -6.3443 H   0  0  0  0  0  0  0  0  0  0  0  0
  -18.9772    1.2103   -5.3522 H   0  0  0  0  0  0  0  0  0  0  0  0
   -7.0262   -7.9554   -1.0591 H   0  0  0  0  0  0  0  0  0  0  0  0
  1 22  1  0  0  0  0
  1 37  1  0  0  0  0
  1 38  1  0  0  0  0
  1 39  1  0  0  0  0
  2 24  1  0  0  0  0
  2 36  1  0  0  0  0
  3 13  1  0  0  0  0
  3 34  1  0  0  0  0
  3 40  1  0  0  0  0
  3 41  1  0  0  0  0
  4  7  3  0  0  0  0
  5 25  1  0  0  0  0
  6 26  1  0  0  0  0
  7 27  1  0  0  0  0
  8 20  2  0  0  0  0
  8 27  1  0  0  0  0
  8 42  1  0  0  0  0
  9 25  2  0  0  0  0
  9 26  1  0  0  0  0
  9 43  1  0  0  0  0
 10 24  2  0  0  0  0
 10 28  1  0  0  0  0
 10 44  1  0  0  0  0
 11 30  2  0  0  0  0
 11 32  1  0  0  0  0
 11 45  1  0  0  0  0
 12 29  2  0  0  0  0
 12 33  1  0  0  0  0
 12 46  1  0  0  0  0
 13 14  1  0  0  0  0
 13 47  1  0  0  0  0
 13 48  1  0  0  0  0
 14 23  1  0  0  0  0
 14 49  1  0  0  0  0
 14 50  1  0  0  0  0
 15 35  1  0  0  0  0
 15 51  1  0  0  0  0
 15 52  1  0  0  0  0
 15 53  1  0  0  0  0
 16 18  1  0  0  0  0
 16 34  1  0  0  0  0
 16 54  1  0  0  0  0
 16 55  1  0  0  0  0
 17 19  1  0  0  0  0
 17 34  1  0  0  0  0
 17 56  1  0  0  0  0
 17 57  1  0  0  0  0
 18 35  1  0  0  0  0
 18 58  1  0  0  0  0
 18 59  1  0  0  0  0
 19 35  1  0  0  0  0
 19 60  1  0  0  0  0
 19 61  1  0  0  0  0
 20 32  1  0  0  0  0
 21 28  1  0  0  0  0
 21 31  1  0  0  0  0
 21 62  1  0  0  0  0
 22 29  1  0  0  0  0
 23 30  1  0  0  0  0
 24 25  1  0  0  0  0
 26 28  2  0  0  0  0
 27 31  2  0  0  0  0
 29 30  1  0  0  0  0
 31 33  1  0  0  0  0
 32 33  2  0  0  0  0
 35 66  1  0  0  0  0
 36 63  1  0  0  0  0
 36 64  1  0  0  0  0
 36 65  1  0  0  0  0
M  CHG  1  35   1
M  END
$$$$
