DMJ
 OpenBabel04161911133D

 25 25  0  0  1  0  0  0  0  0999 V2000
   23.9101   18.7449   48.2187 C   0  0  1  0  0  0  0  0  0  0  0  0
   23.0116   18.3382   47.1807 O   0  0  0  0  0  0  0  0  0  0  0  0
   24.8708   17.5928   48.5133 C   0  0  2  0  0  0  0  0  0  0  0  0
   25.7844   18.0745   49.5108 O   0  0  0  0  0  0  0  0  0  0  0  0
   25.6423   17.1472   47.2276 C   0  0  2  0  0  0  0  0  0  0  0  0
   26.8541   16.5098   47.6211 O   0  0  0  0  0  0  0  0  0  0  0  0
   25.9570   18.3416   46.3094 C   0  0  0  0  0  0  0  0  0  0  0  0
   26.0305   19.5606   47.1293 N   0  3  0  0  0  0  0  0  0  0  0  0
   24.7003   19.9920   47.7497 C   0  0  2  0  0  0  0  0  0  0  0  0
   25.0208   20.9812   48.8910 C   0  0  0  0  0  0  0  0  0  0  0  0
   25.8069   22.0577   48.3624 O   0  0  0  0  0  0  0  0  0  0  0  0
   23.3156   19.0010   49.1027 H   0  0  0  0  0  0  0  0  0  0  0  0
   22.3949   17.6749   47.5515 H   0  0  0  0  0  0  0  0  0  0  0  0
   24.3436   16.7179   48.9134 H   0  0  0  0  0  0  0  0  0  0  0  0
   25.3343   18.0310   50.3770 H   0  0  0  0  0  0  0  0  0  0  0  0
   25.0441   16.4270   46.6559 H   0  0  0  0  0  0  0  0  0  0  0  0
   27.3055   16.1400   46.8370 H   0  0  0  0  0  0  0  0  0  0  0  0
   25.2041   18.5156   45.5418 H   0  0  0  0  0  0  0  0  0  0  0  0
   26.9466   18.2320   45.8385 H   0  0  0  0  0  0  0  0  0  0  0  0
   26.6983   19.3689   47.8991 H   0  0  0  0  0  0  0  0  0  0  0  0
   24.1787   20.5186   46.9469 H   0  0  0  0  0  0  0  0  0  0  0  0
   25.5664   20.5261   49.7209 H   0  0  0  0  0  0  0  0  0  0  0  0
   24.0980   21.4083   49.2877 H   0  0  0  0  0  0  0  0  0  0  0  0
   26.7354   21.7833   48.2758 H   0  0  0  0  0  0  0  0  0  0  0  0
   26.4132   20.3537   46.5890 H   0  0  0  0  0  0  0  0  0  0  0  0
  1  2  1  0  0  0  0
  1  3  1  0  0  0  0
  1  9  1  0  0  0  0
  1 12  1  1  0  0  0
  2 13  1  0  0  0  0
  3  4  1  0  0  0  0
  3  5  1  0  0  0  0
  3 14  1  1  0  0  0
  4 15  1  0  0  0  0
  5  6  1  0  0  0  0
  5  7  1  0  0  0  0
  5 16  1  6  0  0  0
  6 17  1  0  0  0  0
  7  8  1  0  0  0  0
  7 18  1  0  0  0  0
  7 19  1  0  0  0  0
  8  9  1  0  0  0  0
  8 20  1  0  0  0  0
  8 25  1  0  0  0  0
  9 10  1  0  0  0  0
  9 21  1  6  0  0  0
 10 11  1  0  0  0  0
 10 22  1  0  0  0  0
 10 23  1  0  0  0  0
 11 24  1  0  0  0  0
M  CHG  1   8   1
M  END
$$$$
