E0A
 OpenBabel04161909483D

 43 45  0  0  0  0  0  0  0  0999 V2000
   -8.8975   24.3382   -6.4928 C   0  0  0  0  0  0  0  0  0  0  0  0
   -8.5306   22.9705   -6.9725 C   0  0  0  0  0  0  0  0  0  0  0  0
   -7.0869   22.8011   -6.5743 C   0  0  0  0  0  0  0  0  0  0  0  0
   -6.7332   21.3851   -6.8858 C   0  0  0  0  0  0  0  0  0  0  0  0
   -4.9580   21.1517   -6.7266 S   0  0  0  0  0  0  0  0  0  0  0  0
   -4.6607   19.7856   -7.0656 O   0  0  0  0  0  0  0  0  0  0  0  0
   -4.2839   22.2228   -7.4203 O   0  0  0  0  0  0  0  0  0  0  0  0
   -4.6212   21.3704   -5.1121 N   0  0  0  0  0  0  0  0  0  0  0  0
   -5.3240   20.7241   -4.0612 C   0  0  0  0  0  0  0  0  0  0  0  0
   -5.7383   19.3890   -4.1581 C   0  0  0  0  0  0  0  0  0  0  0  0
   -6.4284   18.7768   -3.1119 C   0  0  0  0  0  0  0  0  0  0  0  0
   -6.6630   19.5299   -1.9913 C   0  0  0  0  0  0  0  0  0  0  0  0
   -6.2317   20.8228   -1.9171 C   0  0  0  0  0  0  0  0  0  0  0  0
   -5.5622   21.4706   -2.8934 C   0  0  0  0  0  0  0  0  0  0  0  0
   -5.2102   22.7888   -2.6002 C   0  0  0  0  0  0  0  0  0  0  0  0
   -5.5526   23.3620   -1.3616 C   0  0  0  0  0  0  0  0  0  0  0  0
   -6.2229   22.6376   -0.3764 C   0  0  0  0  0  0  0  0  0  0  0  0
   -6.5682   21.3398   -0.6899 C   0  0  0  0  0  0  0  0  0  0  0  0
   -7.2888   20.3561    0.0595 C   0  0  0  0  0  0  0  0  0  0  0  0
   -7.7999   20.4111    1.1356 O   0  0  0  0  0  0  0  0  0  0  0  0
   -7.2877   19.2422   -0.7845 N   0  3  0  0  0  0  0  0  0  0  0  0
   -7.9704   18.0447   -0.4072 C   0  0  0  0  0  0  0  0  0  0  0  0
   -9.3673   18.0711   -0.9747 C   0  0  0  0  0  0  0  0  0  0  0  0
   -9.9297   24.5465   -6.7355 H   0  0  0  0  0  0  0  0  0  0  0  0
   -8.2368   25.0656   -6.9737 H   0  0  0  0  0  0  0  0  0  0  0  0
   -8.7465   24.3803   -5.4091 H   0  0  0  0  0  0  0  0  0  0  0  0
   -8.6446   22.8843   -8.0619 H   0  0  0  0  0  0  0  0  0  0  0  0
   -9.1550   22.2012   -6.4970 H   0  0  0  0  0  0  0  0  0  0  0  0
   -6.9524   23.0170   -5.5025 H   0  0  0  0  0  0  0  0  0  0  0  0
   -6.4528   23.5078   -7.1326 H   0  0  0  0  0  0  0  0  0  0  0  0
   -7.0123   21.1573   -7.9315 H   0  0  0  0  0  0  0  0  0  0  0  0
   -7.3124   20.7001   -6.2439 H   0  0  0  0  0  0  0  0  0  0  0  0
   -3.8501   21.9981   -4.8480 H   0  0  0  0  0  0  0  0  0  0  0  0
   -5.5254   18.7993   -5.0478 H   0  0  0  0  0  0  0  0  0  0  0  0
   -6.7711   17.7630   -3.1532 H   0  0  0  0  0  0  0  0  0  0  0  0
   -4.6546   23.3707   -3.3217 H   0  0  0  0  0  0  0  0  0  0  0  0
   -5.2958   24.3916   -1.1542 H   0  0  0  0  0  0  0  0  0  0  0  0
   -6.4638   23.0385    0.5955 H   0  0  0  0  0  0  0  0  0  0  0  0
   -8.0144   17.9898    0.6907 H   0  0  0  0  0  0  0  0  0  0  0  0
   -7.4129   17.1815   -0.7746 H   0  0  0  0  0  0  0  0  0  0  0  0
   -9.9036   17.1663   -0.6938 H   0  0  0  0  0  0  0  0  0  0  0  0
   -9.3160   18.1374   -2.0674 H   0  0  0  0  0  0  0  0  0  0  0  0
   -9.9094   18.9476   -0.5998 H   0  0  0  0  0  0  0  0  0  0  0  0
  1  2  1  0  0  0  0
  1 24  1  0  0  0  0
  1 25  1  0  0  0  0
  1 26  1  0  0  0  0
  2  3  1  0  0  0  0
  2 27  1  0  0  0  0
  2 28  1  0  0  0  0
  3  4  1  0  0  0  0
  3 29  1  0  0  0  0
  3 30  1  0  0  0  0
  4  5  1  0  0  0  0
  4 31  1  0  0  0  0
  4 32  1  0  0  0  0
  5  6  2  0  0  0  0
  5  7  2  0  0  0  0
  5  8  1  0  0  0  0
  8  9  1  0  0  0  0
  8 33  1  0  0  0  0
  9 10  2  0  0  0  0
  9 14  1  0  0  0  0
 10 11  1  0  0  0  0
 10 34  1  0  0  0  0
 11 12  2  0  0  0  0
 11 35  1  0  0  0  0
 12 13  1  0  0  0  0
 12 21  1  0  0  0  0
 13 14  2  0  0  0  0
 13 18  1  0  0  0  0
 14 15  1  0  0  0  0
 15 16  2  0  0  0  0
 15 36  1  0  0  0  0
 16 17  1  0  0  0  0
 16 37  1  0  0  0  0
 17 18  2  0  0  0  0
 17 38  1  0  0  0  0
 18 19  1  0  0  0  0
 19 20  2  0  0  0  0
 19 21  1  0  0  0  0
 21 22  1  0  0  0  0
 22 23  1  0  0  0  0
 22 39  1  0  0  0  0
 22 40  1  0  0  0  0
 23 41  1  0  0  0  0
 23 42  1  0  0  0  0
 23 43  1  0  0  0  0
M  CHG  1  21   1
M  END
$$$$
