E0C
 OpenBabel04161909563D

 44 47  0  0  0  0  0  0  0  0999 V2000
   -8.6462    5.5055    3.7442 C   0  0  0  0  0  0  0  0  0  0  0  0
   -9.2559    6.7763    4.2934 C   0  0  0  0  0  0  0  0  0  0  0  0
   -9.0468    7.8679    3.3788 N   0  3  0  0  0  0  0  0  0  0  0  0
   -9.9025    8.1096    2.2883 C   0  0  0  0  0  0  0  0  0  0  0  0
  -10.9312    7.4806    2.0339 O   0  0  0  0  0  0  0  0  0  0  0  0
   -9.2853    9.2088    1.6006 C   0  0  0  0  0  0  0  0  0  0  0  0
   -9.6577    9.9078    0.4688 C   0  0  0  0  0  0  0  0  0  0  0  0
   -8.8284   10.9534    0.0560 C   0  0  0  0  0  0  0  0  0  0  0  0
   -7.6572   11.2839    0.7560 C   0  0  0  0  0  0  0  0  0  0  0  0
   -7.2792   10.5521    1.8890 C   0  0  0  0  0  0  0  0  0  0  0  0
   -8.1317    9.5503    2.2430 C   0  0  0  0  0  0  0  0  0  0  0  0
   -7.9649    8.7310    3.3414 C   0  0  0  0  0  0  0  0  0  0  0  0
   -6.8690    8.8672    4.1610 C   0  0  0  0  0  0  0  0  0  0  0  0
   -5.9713    9.8982    3.8190 C   0  0  0  0  0  0  0  0  0  0  0  0
   -6.1311   10.7435    2.6846 C   0  0  0  0  0  0  0  0  0  0  0  0
   -5.2580   11.7269    2.3730 N   0  0  0  0  0  0  0  0  0  0  0  0
   -3.8079   11.3564    1.8037 S   0  0  0  0  0  0  0  0  0  0  0  0
   -3.1429   10.2653    2.5210 O   0  0  0  0  0  0  0  0  0  0  0  0
   -2.9377   12.5117    1.5829 O   0  0  0  0  0  0  0  0  0  0  0  0
   -3.9992   10.6641    0.0978 C   0  0  0  0  0  0  0  0  0  0  0  0
   -3.7073    9.3013   -0.0940 C   0  0  0  0  0  0  0  0  0  0  0  0
   -3.8479    8.7252   -1.3542 C   0  0  0  0  0  0  0  0  0  0  0  0
   -3.4657    6.8835   -1.5906 Br  0  0  0  0  0  0  0  0  0  0  0  0
   -4.2701    9.4975   -2.4338 C   0  0  0  0  0  0  0  0  0  0  0  0
   -4.5544   10.8620   -2.2446 C   0  0  0  0  0  0  0  0  0  0  0  0
   -4.4244   11.4647   -0.9778 C   0  0  0  0  0  0  0  0  0  0  0  0
   -4.6898   12.7819   -0.7227 O   0  0  0  0  0  0  0  0  0  0  0  0
   -5.2990   13.5712   -1.7298 C   0  0  0  0  0  0  0  0  0  0  0  0
   -8.8025    4.6699    4.4310 H   0  0  0  0  0  0  0  0  0  0  0  0
   -7.5722    5.6500    3.5970 H   0  0  0  0  0  0  0  0  0  0  0  0
   -9.0962    5.2600    2.7768 H   0  0  0  0  0  0  0  0  0  0  0  0
   -8.8228    7.0137    5.2683 H   0  0  0  0  0  0  0  0  0  0  0  0
  -10.3352    6.6215    4.4356 H   0  0  0  0  0  0  0  0  0  0  0  0
  -10.5633    9.6348   -0.0468 H   0  0  0  0  0  0  0  0  0  0  0  0
   -9.0861   11.5284   -0.8253 H   0  0  0  0  0  0  0  0  0  0  0  0
   -7.0242   12.0967    0.4283 H   0  0  0  0  0  0  0  0  0  0  0  0
   -6.7312    8.2183    5.0090 H   0  0  0  0  0  0  0  0  0  0  0  0
   -5.0994   10.0401    4.4523 H   0  0  0  0  0  0  0  0  0  0  0  0
   -3.3793    8.6956    0.7442 H   0  0  0  0  0  0  0  0  0  0  0  0
   -4.3820    9.0479   -3.4184 H   0  0  0  0  0  0  0  0  0  0  0  0
   -4.8767   11.4353   -3.1083 H   0  0  0  0  0  0  0  0  0  0  0  0
   -5.4381   14.5883   -1.3410 H   0  0  0  0  0  0  0  0  0  0  0  0
   -6.2854   13.1754   -1.9891 H   0  0  0  0  0  0  0  0  0  0  0  0
   -4.6628   13.6399   -2.6158 H   0  0  0  0  0  0  0  0  0  0  0  0
  1  2  1  0  0  0  0
  1 29  1  0  0  0  0
  1 30  1  0  0  0  0
  1 31  1  0  0  0  0
  2  3  1  0  0  0  0
  2 32  1  0  0  0  0
  2 33  1  0  0  0  0
  3  4  1  0  0  0  0
  3 12  1  0  0  0  0
  4  5  2  0  0  0  0
  4  6  1  0  0  0  0
  6  7  2  0  0  0  0
  6 11  1  0  0  0  0
  7  8  1  0  0  0  0
  7 34  1  0  0  0  0
  8  9  2  0  0  0  0
  8 35  1  0  0  0  0
  9 10  1  0  0  0  0
  9 36  1  0  0  0  0
 10 11  2  0  0  0  0
 10 15  1  0  0  0  0
 11 12  1  0  0  0  0
 12 13  2  0  0  0  0
 13 14  1  0  0  0  0
 13 37  1  0  0  0  0
 14 15  2  0  0  0  0
 14 38  1  0  0  0  0
 15 16  1  0  0  0  0
 16 17  1  0  0  0  0
 17 18  2  0  0  0  0
 17 19  2  0  0  0  0
 17 20  1  0  0  0  0
 20 21  2  0  0  0  0
 20 26  1  0  0  0  0
 21 22  1  0  0  0  0
 21 39  1  0  0  0  0
 22 23  1  0  0  0  0
 22 24  2  0  0  0  0
 24 25  1  0  0  0  0
 24 40  1  0  0  0  0
 25 26  2  0  0  0  0
 25 41  1  0  0  0  0
 26 27  1  0  0  0  0
 27 28  1  0  0  0  0
 28 42  1  0  0  0  0
 28 43  1  0  0  0  0
 28 44  1  0  0  0  0
M  CHG  1   3   1
M  END
$$$$
