E42
 OpenBabel04161909443D

 34 35  0  0  1  0  0  0  0  0999 V2000
   59.9916    0.6287   40.4613 C   0  0  0  0  0  0  0  0  0  0  0  0
   60.8599    1.1978   41.4036 C   0  0  0  0  0  0  0  0  0  0  0  0
   61.0694    0.5338   42.6201 C   0  0  0  0  0  0  0  0  0  0  0  0
   60.4065   -0.6559   42.8977 C   0  0  0  0  0  0  0  0  0  0  0  0
   59.5386   -1.2047   41.9577 C   0  0  0  0  0  0  0  0  0  0  0  0
   59.3172   -0.5797   40.7182 C   0  0  0  0  0  0  0  0  0  0  0  0
   56.6643   -2.3666   37.8432 C   0  0  0  0  0  0  0  0  0  0  0  0
   56.6523   -0.9892   38.0392 C   0  0  0  0  0  0  0  0  0  0  0  0
   57.5108   -0.4103   38.9754 C   0  0  0  0  0  0  0  0  0  0  0  0
   58.4148   -1.1877   39.7174 C   0  0  0  0  0  0  0  0  0  0  0  0
   58.4193   -2.5753   39.4970 C   0  0  0  0  0  0  0  0  0  0  0  0
   57.5543   -3.1549   38.5701 C   0  0  0  0  0  0  0  0  0  0  0  0
   57.6090   -4.4983   38.4218 O   0  0  0  0  0  0  0  0  0  0  0  0
   61.5536    2.5158   41.1317 C   0  0  0  0  0  0  0  0  0  0  0  0
   60.9189    3.7157   41.8405 C   0  0  1  0  0  0  0  0  0  0  0  0
   59.4818    3.8942   41.3772 N   0  3  0  0  0  0  0  0  0  0  0  0
   60.9916    3.6228   43.3870 C   0  0  0  0  0  0  0  0  0  0  0  0
   59.8358    3.7715   43.8979 O   0  0  0  0  0  0  0  0  0  0  0  0
   62.1222    3.4552   43.8924 O   0  0  0  0  0  0  0  0  0  0  0  0
   59.8568    1.1138   39.4963 H   0  0  0  0  0  0  0  0  0  0  0  0
   61.7490    0.9380   43.3700 H   0  0  0  0  0  0  0  0  0  0  0  0
   60.5668   -1.1528   43.8535 H   0  0  0  0  0  0  0  0  0  0  0  0
   59.0283   -2.1344   42.2105 H   0  0  0  0  0  0  0  0  0  0  0  0
   55.9903   -2.8151   37.1221 H   0  0  0  0  0  0  0  0  0  0  0  0
   55.9598   -0.3750   37.4775 H   0  0  0  0  0  0  0  0  0  0  0  0
   57.4595    0.6681   39.1237 H   0  0  0  0  0  0  0  0  0  0  0  0
   59.1077   -3.2210   40.0418 H   0  0  0  0  0  0  0  0  0  0  0  0
   56.9525   -4.7703   37.7703 H   0  0  0  0  0  0  0  0  0  0  0  0
   61.5503    2.7024   40.0481 H   0  0  0  0  0  0  0  0  0  0  0  0
   62.6090    2.4216   41.4084 H   0  0  0  0  0  0  0  0  0  0  0  0
   61.4304    4.6384   41.5418 H   0  0  0  0  0  0  0  0  0  0  0  0
   59.1024    4.6396   41.9800 H   0  0  0  0  0  0  0  0  0  0  0  0
   59.3464    4.0672   40.3900 H   0  0  0  0  0  0  0  0  0  0  0  0
   58.9678    3.0683   41.7209 H   0  0  0  0  0  0  0  0  0  0  0  0
  1  2  2  0  0  0  0
  1  6  1  0  0  0  0
  1 20  1  0  0  0  0
  2  3  1  0  0  0  0
  2 14  1  0  0  0  0
  3  4  2  0  0  0  0
  3 21  1  0  0  0  0
  4  5  1  0  0  0  0
  4 22  1  0  0  0  0
  5  6  2  0  0  0  0
  5 23  1  0  0  0  0
  6 10  1  0  0  0  0
  7  8  2  0  0  0  0
  7 12  1  0  0  0  0
  7 24  1  0  0  0  0
  8  9  1  0  0  0  0
  8 25  1  0  0  0  0
  9 10  2  0  0  0  0
  9 26  1  0  0  0  0
 10 11  1  0  0  0  0
 11 12  2  0  0  0  0
 11 27  1  0  0  0  0
 12 13  1  0  0  0  0
 13 28  1  0  0  0  0
 14 15  1  0  0  0  0
 14 29  1  0  0  0  0
 14 30  1  0  0  0  0
 15 16  1  0  0  0  0
 15 17  1  0  0  0  0
 15 31  1  6  0  0  0
 16 32  1  0  0  0  0
 16 33  1  0  0  0  0
 16 34  1  0  0  0  0
 17 18  2  0  0  0  0
 17 19  1  0  0  0  0
M  CHG  1  16   1
M  END
$$$$
