EB3
 OpenBabel04161909463D

 47 50  0  0  0  0  0  0  0  0999 V2000
    5.7029    9.2525   -2.9039 C   0  0  0  0  0  0  0  0  0  0  0  0
    5.7609    7.8625   -3.5494 C   0  0  0  0  0  0  0  0  0  0  0  0
    4.4289    7.1434   -3.4525 C   0  0  0  0  0  0  0  0  0  0  0  0
    3.9431    6.9909   -2.0161 C   0  0  0  0  0  0  0  0  0  0  0  0
    3.9780    8.2767   -1.1949 C   0  0  0  0  0  0  0  0  0  0  0  0
    4.5527    9.4685   -1.9269 C   0  0  0  0  0  0  0  0  0  0  0  0
    4.6657   10.6600   -1.0542 N   0  0  0  0  0  0  0  0  0  0  0  0
    5.7328   11.2144    0.1184 S   0  0  0  0  0  0  0  0  0  0  0  0
    7.1008   11.1382   -0.3329 O   0  0  0  0  0  0  0  0  0  0  0  0
    5.1940   12.4946    0.5216 O   0  0  0  0  0  0  0  0  0  0  0  0
    5.5637   10.1973    1.5877 C   0  0  0  0  0  0  0  0  0  0  0  0
    6.7272    9.6785    2.2007 C   0  0  0  0  0  0  0  0  0  0  0  0
    6.6893    8.9169    3.3592 C   0  0  0  0  0  0  0  0  0  0  0  0
    5.4535    8.7008    3.9041 C   0  0  0  0  0  0  0  0  0  0  0  0
    4.3285    9.2224    3.3181 C   0  0  0  0  0  0  0  0  0  0  0  0
    4.3128    9.9778    2.1722 C   0  0  0  0  0  0  0  0  0  0  0  0
    3.0461   10.3952    1.7713 C   0  0  0  0  0  0  0  0  0  0  0  0
    1.9005   10.0342    2.4949 C   0  0  0  0  0  0  0  0  0  0  0  0
    1.9805    9.2528    3.6511 C   0  0  0  0  0  0  0  0  0  0  0  0
    3.2399    8.8434    4.0545 C   0  0  0  0  0  0  0  0  0  0  0  0
    3.6919    8.0043    5.1437 C   0  0  0  0  0  0  0  0  0  0  0  0
    3.0872    7.4008    5.9734 O   0  0  0  0  0  0  0  0  0  0  0  0
    5.0753    8.0079    5.0316 N   0  3  0  0  0  0  0  0  0  0  0  0
    5.9462    7.2640    5.9144 C   0  0  0  0  0  0  0  0  0  0  0  0
    6.1133    5.8423    5.4281 C   0  0  0  0  0  0  0  0  0  0  0  0
    5.5832    9.9736   -3.7317 H   0  0  0  0  0  0  0  0  0  0  0  0
    6.6522    9.4413   -2.4139 H   0  0  0  0  0  0  0  0  0  0  0  0
    6.5546    7.2892   -3.0476 H   0  0  0  0  0  0  0  0  0  0  0  0
    6.0675    7.9741   -4.6058 H   0  0  0  0  0  0  0  0  0  0  0  0
    4.5157    6.1459   -3.8925 H   0  0  0  0  0  0  0  0  0  0  0  0
    3.6716    7.7015   -4.0195 H   0  0  0  0  0  0  0  0  0  0  0  0
    4.5710    6.2559   -1.5000 H   0  0  0  0  0  0  0  0  0  0  0  0
    2.9104    6.6110   -2.0176 H   0  0  0  0  0  0  0  0  0  0  0  0
    4.5377    8.0842   -0.2787 H   0  0  0  0  0  0  0  0  0  0  0  0
    2.9374    8.5130   -0.9059 H   0  0  0  0  0  0  0  0  0  0  0  0
    3.7383    9.7337   -2.6254 H   0  0  0  0  0  0  0  0  0  0  0  0
    3.9003   11.3172   -1.2018 H   0  0  0  0  0  0  0  0  0  0  0  0
    7.6883    9.8706    1.7648 H   0  0  0  0  0  0  0  0  0  0  0  0
    7.5458    8.4934    3.8305 H   0  0  0  0  0  0  0  0  0  0  0  0
    2.9603   10.9948    0.8799 H   0  0  0  0  0  0  0  0  0  0  0  0
    0.9237   10.3660    2.1581 H   0  0  0  0  0  0  0  0  0  0  0  0
    1.1217    8.9724    4.2365 H   0  0  0  0  0  0  0  0  0  0  0  0
    5.5149    7.2783    6.9248 H   0  0  0  0  0  0  0  0  0  0  0  0
    6.9093    7.7835    5.9518 H   0  0  0  0  0  0  0  0  0  0  0  0
    6.7829    5.2853    6.0889 H   0  0  0  0  0  0  0  0  0  0  0  0
    6.5349    5.8330    4.4146 H   0  0  0  0  0  0  0  0  0  0  0  0
    5.1441    5.3290    5.3949 H   0  0  0  0  0  0  0  0  0  0  0  0
  1  2  1  0  0  0  0
  1  6  1  0  0  0  0
  1 26  1  0  0  0  0
  1 27  1  0  0  0  0
  2  3  1  0  0  0  0
  2 28  1  0  0  0  0
  2 29  1  0  0  0  0
  3  4  1  0  0  0  0
  3 30  1  0  0  0  0
  3 31  1  0  0  0  0
  4  5  1  0  0  0  0
  4 32  1  0  0  0  0
  4 33  1  0  0  0  0
  5  6  1  0  0  0  0
  5 34  1  0  0  0  0
  5 35  1  0  0  0  0
  6  7  1  0  0  0  0
  6 36  1  0  0  0  0
  7  8  1  0  0  0  0
  7 37  1  0  0  0  0
  8  9  2  0  0  0  0
  8 10  2  0  0  0  0
  8 11  1  0  0  0  0
 11 12  2  0  0  0  0
 11 16  1  0  0  0  0
 12 13  1  0  0  0  0
 12 38  1  0  0  0  0
 13 14  2  0  0  0  0
 13 39  1  0  0  0  0
 14 15  1  0  0  0  0
 14 23  1  0  0  0  0
 15 16  2  0  0  0  0
 15 20  1  0  0  0  0
 16 17  1  0  0  0  0
 17 18  2  0  0  0  0
 17 40  1  0  0  0  0
 18 19  1  0  0  0  0
 18 41  1  0  0  0  0
 19 20  2  0  0  0  0
 19 42  1  0  0  0  0
 20 21  1  0  0  0  0
 21 22  2  0  0  0  0
 21 23  1  0  0  0  0
 23 24  1  0  0  0  0
 24 25  1  0  0  0  0
 24 43  1  0  0  0  0
 24 44  1  0  0  0  0
 25 45  1  0  0  0  0
 25 46  1  0  0  0  0
 25 47  1  0  0  0  0
M  CHG  1  23   1
M  END
$$$$
