EDG
 OpenBabel04161910483D

 21 21  0  0  1  0  0  0  0  0999 V2000
  306.1129  219.8658  329.5216 O   0  0  0  0  0  0  0  0  0  0  0  0
  305.1507  220.1957  330.5222 C   0  0  1  0  0  0  0  0  0  0  0  0
  304.3604  218.9202  330.8945 C   0  0  0  0  0  0  0  0  0  0  0  0
  304.4230  218.8194  332.3826 N   0  3  0  0  0  0  0  0  0  0  0  0
  305.8557  220.6095  331.8090 C   0  0  1  0  0  0  0  0  0  0  0  0
  306.0316  222.0198  331.8834 O   0  0  0  0  0  0  0  0  0  0  0  0
  304.8907  220.1537  332.8975 C   0  0  2  0  0  0  0  0  0  0  0  0
  305.5424  219.9839  334.2635 C   0  0  0  0  0  0  0  0  0  0  0  0
  306.3985  218.8391  334.2152 O   0  0  0  0  0  0  0  0  0  0  0  0
  306.5216  220.6827  329.1910 H   0  0  0  0  0  0  0  0  0  0  0  0
  304.4842  220.9754  330.1395 H   0  0  0  0  0  0  0  0  0  0  0  0
  304.7734  217.9983  330.4755 H   0  0  0  0  0  0  0  0  0  0  0  0
  303.3084  219.0195  330.6275 H   0  0  0  0  0  0  0  0  0  0  0  0
  303.5344  218.5384  332.8076 H   0  0  0  0  0  0  0  0  0  0  0  0
  306.8428  220.1352  331.8885 H   0  0  0  0  0  0  0  0  0  0  0  0
  306.7024  222.3025  331.2346 H   0  0  0  0  0  0  0  0  0  0  0  0
  304.0115  220.8210  332.9645 H   0  0  0  0  0  0  0  0  0  0  0  0
  304.7768  219.7919  335.0233 H   0  0  0  0  0  0  0  0  0  0  0  0
  306.1030  220.8753  334.5710 H   0  0  0  0  0  0  0  0  0  0  0  0
  307.2715  219.1162  333.8729 H   0  0  0  0  0  0  0  0  0  0  0  0
  305.1142  218.1059  332.6792 H   0  0  0  0  0  0  0  0  0  0  0  0
  1  2  1  0  0  0  0
  1 10  1  0  0  0  0
  2  3  1  0  0  0  0
  2  5  1  0  0  0  0
  2 11  1  6  0  0  0
  3  4  1  0  0  0  0
  3 12  1  0  0  0  0
  3 13  1  0  0  0  0
  4  7  1  0  0  0  0
  4 14  1  0  0  0  0
  4 21  1  0  0  0  0
  5  6  1  0  0  0  0
  5  7  1  0  0  0  0
  5 15  1  1  0  0  0
  6 16  1  0  0  0  0
  7  8  1  0  0  0  0
  7 17  1  1  0  0  0
  8  9  1  0  0  0  0
  8 18  1  0  0  0  0
  8 19  1  0  0  0  0
  9 20  1  0  0  0  0
M  CHG  1   4   1
M  END
$$$$
