EZL
 OpenBabel04161911543D

 26 27  0  0  0  0  0  0  0  0999 V2000
   51.4020   40.4584   91.5865 N   0  0  0  0  0  0  0  0  0  0  0  0
   53.7358   41.7041   87.7772 C   0  0  0  0  0  0  0  0  0  0  0  0
   54.4479   42.7978   88.2772 C   0  0  0  0  0  0  0  0  0  0  0  0
   55.0612   43.7305   87.4465 C   0  0  0  0  0  0  0  0  0  0  0  0
   54.9870   43.6006   86.0681 C   0  0  0  0  0  0  0  0  0  0  0  0
   55.7108   44.7998   84.0981 C   0  0  0  0  0  0  0  0  0  0  0  0
   53.3864   41.5241   92.6611 O   0  0  0  0  0  0  0  0  0  0  0  0
   53.6073   39.2546   91.5874 O   0  0  0  0  0  0  0  0  0  0  0  0
   53.0729   40.6008   91.5902 S   0  0  0  0  0  0  0  0  0  0  0  0
   53.5479   41.3495   89.9794 C   0  0  0  0  0  0  0  0  0  0  0  0
   53.1955   40.8893   88.7891 N   0  0  0  0  0  0  0  0  0  0  0  0
   54.4394   42.7928   90.0067 S   0  0  0  0  0  0  0  0  0  0  0  0
   54.2986   42.5277   85.5080 C   0  0  0  0  0  0  0  0  0  0  0  0
   53.6587   41.5633   86.3447 C   0  0  0  0  0  0  0  0  0  0  0  0
   55.6648   44.6407   85.4975 O   0  0  0  0  0  0  0  0  0  0  0  0
   57.1289   44.5550   83.6352 C   0  0  0  0  0  0  0  0  0  0  0  0
   50.8237   41.2828   91.4586 H   0  0  0  0  0  0  0  0  0  0  0  0
   50.9993   39.5291   91.6501 H   0  0  0  0  0  0  0  0  0  0  0  0
   55.6075   44.5742   87.8572 H   0  0  0  0  0  0  0  0  0  0  0  0
   55.4237   45.8333   83.8743 H   0  0  0  0  0  0  0  0  0  0  0  0
   55.0155   44.1340   83.5990 H   0  0  0  0  0  0  0  0  0  0  0  0
   54.2215   42.3783   84.4263 H   0  0  0  0  0  0  0  0  0  0  0  0
   53.1199   40.7184   85.9171 H   0  0  0  0  0  0  0  0  0  0  0  0
   57.1812   44.6589   82.5511 H   0  0  0  0  0  0  0  0  0  0  0  0
   57.4522   43.5493   83.9217 H   0  0  0  0  0  0  0  0  0  0  0  0
   57.8285   45.2627   84.0975 H   0  0  0  0  0  0  0  0  0  0  0  0
  1  9  1  0  0  0  0
  1 17  1  0  0  0  0
  1 18  1  0  0  0  0
  2  3  2  0  0  0  0
  2 11  1  0  0  0  0
  2 14  1  0  0  0  0
  3  4  1  0  0  0  0
  3 12  1  0  0  0  0
  4  5  2  0  0  0  0
  4 19  1  0  0  0  0
  5 13  1  0  0  0  0
  5 15  1  0  0  0  0
  6 15  1  0  0  0  0
  6 16  1  0  0  0  0
  6 20  1  0  0  0  0
  6 21  1  0  0  0  0
  7  9  2  0  0  0  0
  8  9  2  0  0  0  0
  9 10  1  0  0  0  0
 10 11  2  0  0  0  0
 10 12  1  0  0  0  0
 13 14  2  0  0  0  0
 13 22  1  0  0  0  0
 14 23  1  0  0  0  0
 16 24  1  0  0  0  0
 16 25  1  0  0  0  0
 16 26  1  0  0  0  0
M  END
$$$$
