FLF
 OpenBabel04161909543D

 29 30  0  0  0  0  0  0  0  0999 V2000
   45.6954   41.6883  -14.7854 C   0  0  0  0  0  0  0  0  0  0  0  0
   47.4972   40.4046  -13.9084 O   0  0  0  0  0  0  0  0  0  0  0  0
   45.2148   40.5198  -15.3338 C   0  0  0  0  0  0  0  0  0  0  0  0
   44.0122   40.4539  -15.9871 C   0  0  0  0  0  0  0  0  0  0  0  0
   47.5727   42.6424  -13.6870 O   0  0  0  0  0  0  0  0  0  0  0  0
   43.2350   41.6021  -16.1370 C   0  0  0  0  0  0  0  0  0  0  0  0
   43.7010   42.7976  -15.6214 C   0  0  0  0  0  0  0  0  0  0  0  0
   44.9189   42.8392  -14.9042 C   0  0  0  0  0  0  0  0  0  0  0  0
   47.0414   41.5970  -14.0685 C   0  0  0  0  0  0  0  0  0  0  0  0
   45.3936   43.9913  -14.3208 N   0  0  0  0  0  0  0  0  0  0  0  0
   45.0158   45.2484  -14.6609 C   0  0  0  0  0  0  0  0  0  0  0  0
   45.9352   46.0493  -15.2848 C   0  0  0  0  0  0  0  0  0  0  0  0
   45.5483   47.2953  -15.6642 C   0  0  0  0  0  0  0  0  0  0  0  0
   44.2499   47.7677  -15.4261 C   0  0  0  0  0  0  0  0  0  0  0  0
   43.3244   46.9506  -14.8140 C   0  0  0  0  0  0  0  0  0  0  0  0
   43.7097   45.6891  -14.4297 C   0  0  0  0  0  0  0  0  0  0  0  0
   46.5547   48.1721  -16.2575 C   0  0  0  0  0  0  0  0  0  0  0  0
   47.7805   48.0271  -15.6894 F   0  0  0  0  0  0  0  0  0  0  0  0
   46.7370   48.0081  -17.5911 F   0  0  0  0  0  0  0  0  0  0  0  0
   46.1602   49.4539  -16.0571 F   0  0  0  0  0  0  0  0  0  0  0  0
   45.8386   39.6275  -15.2072 H   0  0  0  0  0  0  0  0  0  0  0  0
   43.6893   39.5054  -16.3807 H   0  0  0  0  0  0  0  0  0  0  0  0
   42.2885   41.5311  -16.6526 H   0  0  0  0  0  0  0  0  0  0  0  0
   43.0735   43.6868  -15.7581 H   0  0  0  0  0  0  0  0  0  0  0  0
   46.2233   43.8663  -13.7106 H   0  0  0  0  0  0  0  0  0  0  0  0
   46.9471   45.6799  -15.4614 H   0  0  0  0  0  0  0  0  0  0  0  0
   43.9820   48.7847  -15.7011 H   0  0  0  0  0  0  0  0  0  0  0  0
   42.3031   47.2930  -14.6164 H   0  0  0  0  0  0  0  0  0  0  0  0
   42.9995   45.0097  -13.9613 H   0  0  0  0  0  0  0  0  0  0  0  0
  1  3  2  0  0  0  0
  1  8  1  0  0  0  0
  1  9  1  0  0  0  0
  2  9  2  0  0  0  0
  3  4  1  0  0  0  0
  3 21  1  0  0  0  0
  4  6  2  0  0  0  0
  4 22  1  0  0  0  0
  5  9  1  0  0  0  0
  6  7  1  0  0  0  0
  6 23  1  0  0  0  0
  7  8  2  0  0  0  0
  7 24  1  0  0  0  0
  8 10  1  0  0  0  0
 10 11  1  0  0  0  0
 10 25  1  0  0  0  0
 11 12  2  0  0  0  0
 11 16  1  0  0  0  0
 12 13  1  0  0  0  0
 12 26  1  0  0  0  0
 13 14  2  0  0  0  0
 13 17  1  0  0  0  0
 14 15  1  0  0  0  0
 14 27  1  0  0  0  0
 15 16  2  0  0  0  0
 15 28  1  0  0  0  0
 16 29  1  0  0  0  0
 17 18  1  0  0  0  0
 17 19  1  0  0  0  0
 17 20  1  0  0  0  0
M  END
$$$$
