FNY
 OpenBabel04161910263D

108112  0  0  1  0  0  0  0  0999 V2000
  154.7768   -5.0746  132.7886 C   0  0  0  0  0  0  0  0  0  0  0  0
  155.2435   -6.4228  132.1781 C   0  0  1  0  0  0  0  0  0  0  0  0
  154.9804   -7.5167  133.2593 C   0  0  2  0  0  0  0  0  0  0  0  0
  155.6087   -8.8062  132.7651 C   0  0  2  0  0  0  0  0  0  0  0  0
  155.5938   -9.0133  131.2426 C   0  0  2  0  0  0  0  0  0  0  0  0
  154.7837   -8.0028  130.3936 C   0  0  2  0  0  0  0  0  0  0  0  0
  154.5831   -6.7134  131.0074 O   0  0  0  0  0  0  0  0  0  0  0  0
  153.6395   -8.7478  129.9736 O   0  0  0  0  0  0  0  0  0  0  0  0
  152.4185   -8.0990  129.9269 C   0  0  1  0  0  0  0  0  0  0  0  0
  151.9686   -7.4997  131.2198 C   0  0  1  0  0  0  0  0  0  0  0  0
  150.8314   -6.6576  130.8566 C   0  0  2  0  0  0  0  0  0  0  0  0
  151.2553   -6.1602  129.4562 C   0  0  2  0  0  0  0  0  0  0  0  0
  152.3399   -7.0285  128.9943 O   0  0  0  0  0  0  0  0  0  0  0  0
  151.6612   -4.7023  129.5757 C   0  0  0  0  0  0  0  0  0  0  0  0
  151.7571   -4.0670  128.3169 O   0  0  0  0  0  0  0  0  0  0  0  0
  150.6268   -5.6852  131.8682 O   0  0  0  0  0  0  0  0  0  0  0  0
  151.6692   -8.4421  132.2206 O   0  0  0  0  0  0  0  0  0  0  0  0
  151.3345   -9.1790  129.6261 C   0  0  0  0  0  0  0  0  0  0  0  0
  151.3564  -10.3090  130.5461 O   0  0  0  0  0  0  0  0  0  0  0  0
  150.0245  -10.8704  130.6740 C   0  0  1  0  0  0  0  0  0  0  0  0
  149.9735  -12.1412  131.5525 C   0  0  2  0  0  0  0  0  0  0  0  0
  149.6426  -11.5564  132.9036 C   0  0  1  0  0  0  0  0  0  0  0  0
  148.6319  -10.5210  132.4677 C   0  0  2  0  0  0  0  0  0  0  0  0
  149.2241   -9.8591  131.3553 O   0  0  0  0  0  0  0  0  0  0  0  0
  148.2821   -9.5606  133.5779 C   0  0  0  0  0  0  0  0  0  0  0  0
  149.3523   -8.6635  133.8375 O   0  0  0  0  0  0  0  0  0  0  0  0
  149.0287  -12.5230  133.7504 O   0  0  0  0  0  0  0  0  0  0  0  0
  151.1841  -12.8836  131.5517 O   0  0  0  0  0  0  0  0  0  0  0  0
  149.4548  -11.1119  129.2780 C   0  0  0  0  0  0  0  0  0  0  0  0
  148.1590  -11.6681  129.3741 O   0  0  0  0  0  0  0  0  0  0  0  0
  147.2322  -11.2901  128.3440 C   0  0  1  0  0  0  0  0  0  0  0  0
  145.9333  -12.0629  128.6569 C   0  0  2  0  0  0  0  0  0  0  0  0
  145.2749  -11.1867  129.6934 C   0  0  1  0  0  0  0  0  0  0  0  0
  145.5461   -9.8327  129.0811 C   0  0  2  0  0  0  0  0  0  0  0  0
  146.8523   -9.9066  128.4674 O   0  0  0  0  0  0  0  0  0  0  0  0
  145.5327   -8.7612  130.1646 C   0  0  0  0  0  0  0  0  0  0  0  0
  146.0148   -7.5884  129.5381 O   0  0  0  0  0  0  0  0  0  0  0  0
  143.9011  -11.4323  129.9022 O   0  0  0  0  0  0  0  0  0  0  0  0
  146.1219  -13.3760  129.1593 O   0  0  0  0  0  0  0  0  0  0  0  0
  147.7465  -11.5433  126.9118 C   0  0  0  0  0  0  0  0  0  0  0  0
  148.0927  -12.9232  126.7507 O   0  0  0  0  0  0  0  0  0  0  0  0
  148.0125  -13.4321  125.4134 C   0  0  1  0  0  0  0  0  0  0  0  0
  148.0980  -14.9753  125.4557 C   0  0  2  0  0  0  0  0  0  0  0  0
  146.6842  -15.3422  125.8294 C   0  0  1  0  0  0  0  0  0  0  0  0
  145.9409  -14.3911  124.9204 C   0  0  2  0  0  0  0  0  0  0  0  0
  146.7180  -13.1788  124.8383 O   0  0  0  0  0  0  0  0  0  0  0  0
  144.5605  -14.0859  125.4667 C   0  0  0  0  0  0  0  0  0  0  0  0
  143.9072  -13.1885  124.5715 O   0  0  0  0  0  0  0  0  0  0  0  0
  146.4131  -16.7075  125.5084 O   0  0  0  0  0  0  0  0  0  0  0  0
  149.0328  -15.5488  126.3513 O   0  0  0  0  0  0  0  0  0  0  0  0
  149.0900  -12.8173  124.5091 C   0  0  0  0  0  0  0  0  0  0  0  0
  150.4253  -13.0725  124.9327 O   0  0  0  0  0  0  0  0  0  0  0  0
  155.2010  -10.3648  130.9315 O   0  0  0  0  0  0  0  0  0  0  0  0
  155.0316   -9.9269  133.4248 O   0  0  0  0  0  0  0  0  0  0  0  0
  153.6146   -7.7463  133.3594 O   0  0  0  0  0  0  0  0  0  0  0  0
  154.7104   -4.0950  131.7683 O   0  0  0  0  0  0  0  0  0  0  0  0
  155.4898   -4.7435  133.5282 H   0  0  0  0  0  0  0  0  0  0  0  0
  153.7941   -5.1407  133.2572 H   0  0  0  0  0  0  0  0  0  0  0  0
  156.2986   -6.3648  131.9486 H   0  0  0  0  0  0  0  0  0  0  0  0
  155.2808   -7.2427  134.2447 H   0  0  0  0  0  0  0  0  0  0  0  0
  156.6640   -8.7358  133.0697 H   0  0  0  0  0  0  0  0  0  0  0  0
  156.6364   -8.8690  130.9181 H   0  0  0  0  0  0  0  0  0  0  0  0
  155.3295   -7.8052  129.4784 H   0  0  0  0  0  0  0  0  0  0  0  0
  152.6641   -6.7725  131.6103 H   0  0  0  0  0  0  0  0  0  0  0  0
  149.9017   -7.2403  130.8326 H   0  0  0  0  0  0  0  0  0  0  0  0
  150.4712   -6.3138  128.7496 H   0  0  0  0  0  0  0  0  0  0  0  0
  152.6268   -4.6233  130.0608 H   0  0  0  0  0  0  0  0  0  0  0  0
  150.9203   -4.1608  130.1670 H   0  0  0  0  0  0  0  0  0  0  0  0
  150.8752   -4.1083  127.9104 H   0  0  0  0  0  0  0  0  0  0  0  0
  150.5989   -6.1679  132.7086 H   0  0  0  0  0  0  0  0  0  0  0  0
  151.1513   -9.1900  131.8444 H   0  0  0  0  0  0  0  0  0  0  0  0
  151.3401   -9.4861  128.6030 H   0  0  0  0  0  0  0  0  0  0  0  0
  150.3498   -8.7036  129.7924 H   0  0  0  0  0  0  0  0  0  0  0  0
  149.1577  -12.8147  131.2823 H   0  0  0  0  0  0  0  0  0  0  0  0
  150.5429  -11.1714  133.3859 H   0  0  0  0  0  0  0  0  0  0  0  0
  147.7099  -10.9979  132.1104 H   0  0  0  0  0  0  0  0  0  0  0  0
  148.0605  -10.1212  134.4880 H   0  0  0  0  0  0  0  0  0  0  0  0
  147.4121   -8.9643  133.2957 H   0  0  0  0  0  0  0  0  0  0  0  0
  149.5688   -8.2392  132.9873 H   0  0  0  0  0  0  0  0  0  0  0  0
  149.6997  -13.1710  133.9513 H   0  0  0  0  0  0  0  0  0  0  0  0
  151.0999  -13.6114  132.1994 H   0  0  0  0  0  0  0  0  0  0  0  0
  150.1654  -11.7536  128.7485 H   0  0  0  0  0  0  0  0  0  0  0  0
  149.3725  -10.1569  128.7652 H   0  0  0  0  0  0  0  0  0  0  0  0
  145.2891  -12.1161  127.7731 H   0  0  0  0  0  0  0  0  0  0  0  0
  145.7689  -11.2682  130.6650 H   0  0  0  0  0  0  0  0  0  0  0  0
  144.8009   -9.6016  128.3074 H   0  0  0  0  0  0  0  0  0  0  0  0
  146.1815   -9.0676  131.0037 H   0  0  0  0  0  0  0  0  0  0  0  0
  144.5090   -8.6246  130.5451 H   0  0  0  0  0  0  0  0  0  0  0  0
  146.1143   -6.8808  130.1882 H   0  0  0  0  0  0  0  0  0  0  0  0
  143.4283  -11.3115  129.0237 H   0  0  0  0  0  0  0  0  0  0  0  0
  145.2754  -13.6516  129.5440 H   0  0  0  0  0  0  0  0  0  0  0  0
  148.6109  -10.9037  126.6943 H   0  0  0  0  0  0  0  0  0  0  0  0
  146.9636  -11.2496  126.2049 H   0  0  0  0  0  0  0  0  0  0  0  0
  148.3016  -15.3734  124.4498 H   0  0  0  0  0  0  0  0  0  0  0  0
  146.4661  -15.1666  126.8857 H   0  0  0  0  0  0  0  0  0  0  0  0
  145.8571  -14.8255  123.9149 H   0  0  0  0  0  0  0  0  0  0  0  0
  144.6347  -13.6213  126.4465 H   0  0  0  0  0  0  0  0  0  0  0  0
  143.9724  -15.0020  125.5534 H   0  0  0  0  0  0  0  0  0  0  0  0
  143.0171  -12.9968  124.9181 H   0  0  0  0  0  0  0  0  0  0  0  0
  145.4680  -16.8656  125.6002 H   0  0  0  0  0  0  0  0  0  0  0  0
  149.9184  -15.2749  126.0843 H   0  0  0  0  0  0  0  0  0  0  0  0
  148.9678  -11.7294  124.4670 H   0  0  0  0  0  0  0  0  0  0  0  0
  148.9661  -13.1911  123.4847 H   0  0  0  0  0  0  0  0  0  0  0  0
  150.5799  -14.0271  124.8803 H   0  0  0  0  0  0  0  0  0  0  0  0
  154.2677  -10.4317  131.1323 H   0  0  0  0  0  0  0  0  0  0  0  0
  154.9885   -9.7360  134.3697 H   0  0  0  0  0  0  0  0  0  0  0  0
  153.3668   -8.2684  132.5677 H   0  0  0  0  0  0  0  0  0  0  0  0
  154.0937   -4.4393  131.1087 H   0  0  0  0  0  0  0  0  0  0  0  0
  1  2  1  0  0  0  0
  1 56  1  0  0  0  0
  1 57  1  0  0  0  0
  1 58  1  0  0  0  0
  2  3  1  0  0  0  0
  2  7  1  0  0  0  0
  2 59  1  6  0  0  0
  3  4  1  0  0  0  0
  3 55  1  0  0  0  0
  3 60  1  1  0  0  0
  4  5  1  0  0  0  0
  4 54  1  0  0  0  0
  4 61  1  1  0  0  0
  5  6  1  0  0  0  0
  5 53  1  0  0  0  0
  5 62  1  6  0  0  0
  6  7  1  0  0  0  0
  6  8  1  0  0  0  0
  6 63  1  6  0  0  0
  9  8  1  1  0  0  0
  9 10  1  0  0  0  0
  9 13  1  0  0  0  0
  9 18  1  0  0  0  0
 10 11  1  0  0  0  0
 10 17  1  0  0  0  0
 10 64  1  1  0  0  0
 11 12  1  0  0  0  0
 11 16  1  0  0  0  0
 11 65  1  6  0  0  0
 12 13  1  0  0  0  0
 12 14  1  0  0  0  0
 12 66  1  6  0  0  0
 14 15  1  0  0  0  0
 14 67  1  0  0  0  0
 14 68  1  0  0  0  0
 15 69  1  0  0  0  0
 16 70  1  0  0  0  0
 17 71  1  0  0  0  0
 18 19  1  0  0  0  0
 18 72  1  0  0  0  0
 18 73  1  0  0  0  0
 20 19  1  6  0  0  0
 20 21  1  0  0  0  0
 20 24  1  0  0  0  0
 20 29  1  0  0  0  0
 21 22  1  0  0  0  0
 21 28  1  0  0  0  0
 21 74  1  6  0  0  0
 22 23  1  0  0  0  0
 22 27  1  0  0  0  0
 22 75  1  1  0  0  0
 23 24  1  0  0  0  0
 23 25  1  0  0  0  0
 23 76  1  6  0  0  0
 25 26  1  0  0  0  0
 25 77  1  0  0  0  0
 25 78  1  0  0  0  0
 26 79  1  0  0  0  0
 27 80  1  0  0  0  0
 28 81  1  0  0  0  0
 29 30  1  0  0  0  0
 29 82  1  0  0  0  0
 29 83  1  0  0  0  0
 31 30  1  1  0  0  0
 31 32  1  0  0  0  0
 31 35  1  0  0  0  0
 31 40  1  0  0  0  0
 32 33  1  0  0  0  0
 32 39  1  0  0  0  0
 32 84  1  6  0  0  0
 33 34  1  0  0  0  0
 33 38  1  0  0  0  0
 33 85  1  1  0  0  0
 34 35  1  0  0  0  0
 34 36  1  0  0  0  0
 34 86  1  6  0  0  0
 36 37  1  0  0  0  0
 36 87  1  0  0  0  0
 36 88  1  0  0  0  0
 37 89  1  0  0  0  0
 38 90  1  0  0  0  0
 39 91  1  0  0  0  0
 40 41  1  0  0  0  0
 40 92  1  0  0  0  0
 40 93  1  0  0  0  0
 42 41  1  1  0  0  0
 42 43  1  0  0  0  0
 42 46  1  0  0  0  0
 42 51  1  0  0  0  0
 43 44  1  0  0  0  0
 43 50  1  0  0  0  0
 43 94  1  6  0  0  0
 44 45  1  0  0  0  0
 44 49  1  0  0  0  0
 44 95  1  1  0  0  0
 45 46  1  0  0  0  0
 45 47  1  0  0  0  0
 45 96  1  6  0  0  0
 47 48  1  0  0  0  0
 47 97  1  0  0  0  0
 47 98  1  0  0  0  0
 48 99  1  0  0  0  0
 49100  1  0  0  0  0
 50101  1  0  0  0  0
 51 52  1  0  0  0  0
 51102  1  0  0  0  0
 51103  1  0  0  0  0
 52104  1  0  0  0  0
 53105  1  0  0  0  0
 54106  1  0  0  0  0
 55107  1  0  0  0  0
 56108  1  0  0  0  0
M  END
$$$$
