FPP
 OpenBabel04161910463D

 49 48  0  0  0  0  0  0  0  0999 V2000
    5.0958   76.4998   28.5894 C   0  0  0  0  0  0  0  0  0  0  0  0
    5.2529   75.1093   28.5919 O   0  0  0  0  0  0  0  0  0  0  0  0
    3.6270   76.6918   28.9219 C   0  0  0  0  0  0  0  0  0  0  0  0
    2.8677   77.7454   28.5876 C   0  0  0  0  0  0  0  0  0  0  0  0
    3.4660   78.9613   27.9491 C   0  0  0  0  0  0  0  0  0  0  0  0
    1.3951   77.7444   28.9065 C   0  0  0  0  0  0  0  0  0  0  0  0
    0.5176   77.3781   27.7112 C   0  0  0  0  0  0  0  0  0  0  0  0
   -0.9552   77.4149   28.0492 C   0  0  0  0  0  0  0  0  0  0  0  0
   -1.9352   77.4047   27.1208 C   0  0  0  0  0  0  0  0  0  0  0  0
   -1.6295   77.3388   25.6490 C   0  0  0  0  0  0  0  0  0  0  0  0
   -3.3807   77.4168   27.5662 C   0  0  0  0  0  0  0  0  0  0  0  0
   -4.2895   78.3576   26.7737 C   0  0  0  0  0  0  0  0  0  0  0  0
   -4.0606   79.7923   27.1519 C   0  0  0  0  0  0  0  0  0  0  0  0
   -4.8634   80.6132   27.8445 C   0  0  0  0  0  0  0  0  0  0  0  0
   -6.2203   80.2755   28.3892 C   0  0  0  0  0  0  0  0  0  0  0  0
   -4.3863   81.9962   28.1243 C   0  0  0  0  0  0  0  0  0  0  0  0
    6.1453   74.2520   27.5220 P   0  0  1  0  0  0  0  0  0  0  0  0
    5.9808   72.8295   28.0498 O   0  0  0  0  0  0  0  0  0  0  0  0
    5.6179   74.5933   26.1392 O   0  0  0  0  0  0  0  0  0  0  0  0
    7.5609   74.8677   27.9160 O   0  0  0  0  0  0  0  0  0  0  0  0
    8.9540   74.5259   27.1530 P   0  0  0  0  0  0  0  0  0  0  0  0
    8.8554   75.2181   25.8463 O   0  0  0  0  0  0  0  0  0  0  0  0
    9.0352   72.9908   27.0862 O   0  0  0  0  0  0  0  0  0  0  0  0
   10.0143   75.1442   28.0677 O   0  0  0  0  0  0  0  0  0  0  0  0
    5.3545   76.9711   27.6420 H   0  0  0  0  0  0  0  0  0  0  0  0
    5.6916   76.9780   29.3859 H   0  0  0  0  0  0  0  0  0  0  0  0
    3.1424   75.8420   29.4133 H   0  0  0  0  0  0  0  0  0  0  0  0
    2.6979   79.7164   27.7637 H   0  0  0  0  0  0  0  0  0  0  0  0
    3.9373   78.7101   26.9946 H   0  0  0  0  0  0  0  0  0  0  0  0
    4.2202   79.4017   28.6115 H   0  0  0  0  0  0  0  0  0  0  0  0
    1.1094   78.7328   29.2778 H   0  0  0  0  0  0  0  0  0  0  0  0
    1.2049   77.0196   29.7085 H   0  0  0  0  0  0  0  0  0  0  0  0
    0.7859   76.3722   27.3659 H   0  0  0  0  0  0  0  0  0  0  0  0
    0.7205   78.0889   26.9026 H   0  0  0  0  0  0  0  0  0  0  0  0
   -1.2422   77.4287   29.0987 H   0  0  0  0  0  0  0  0  0  0  0  0
   -2.5390   77.3391   25.0468 H   0  0  0  0  0  0  0  0  0  0  0  0
   -1.0927   76.4185   25.4003 H   0  0  0  0  0  0  0  0  0  0  0  0
   -1.0298   78.1992   25.3305 H   0  0  0  0  0  0  0  0  0  0  0  0
   -3.4325   77.7058   28.6244 H   0  0  0  0  0  0  0  0  0  0  0  0
   -3.7759   76.3962   27.4845 H   0  0  0  0  0  0  0  0  0  0  0  0
   -5.3341   78.0841   26.9449 H   0  0  0  0  0  0  0  0  0  0  0  0
   -4.1104   78.2500   25.7053 H   0  0  0  0  0  0  0  0  0  0  0  0
   -3.0991   80.1870   26.8219 H   0  0  0  0  0  0  0  0  0  0  0  0
   -6.6426   81.1365   28.9147 H   0  0  0  0  0  0  0  0  0  0  0  0
   -6.1577   79.4429   29.0949 H   0  0  0  0  0  0  0  0  0  0  0  0
   -6.8963   80.0139   27.5710 H   0  0  0  0  0  0  0  0  0  0  0  0
   -3.3884   82.1517   27.7026 H   0  0  0  0  0  0  0  0  0  0  0  0
   -4.3325   82.1712   29.2038 H   0  0  0  0  0  0  0  0  0  0  0  0
   -5.0674   82.7228   27.6746 H   0  0  0  0  0  0  0  0  0  0  0  0
  1  2  1  0  0  0  0
  1  3  1  0  0  0  0
  1 25  1  0  0  0  0
  1 26  1  0  0  0  0
  3  4  2  0  0  0  0
  3 27  1  0  0  0  0
  4  5  1  0  0  0  0
  4  6  1  0  0  0  0
  5 28  1  0  0  0  0
  5 29  1  0  0  0  0
  5 30  1  0  0  0  0
  6  7  1  0  0  0  0
  6 31  1  0  0  0  0
  6 32  1  0  0  0  0
  7  8  1  0  0  0  0
  7 33  1  0  0  0  0
  7 34  1  0  0  0  0
  8  9  2  0  0  0  0
  8 35  1  0  0  0  0
  9 10  1  0  0  0  0
  9 11  1  0  0  0  0
 10 36  1  0  0  0  0
 10 37  1  0  0  0  0
 10 38  1  0  0  0  0
 11 12  1  0  0  0  0
 11 39  1  0  0  0  0
 11 40  1  0  0  0  0
 12 13  1  0  0  0  0
 12 41  1  0  0  0  0
 12 42  1  0  0  0  0
 13 14  2  0  0  0  0
 13 43  1  0  0  0  0
 14 15  1  0  0  0  0
 14 16  1  0  0  0  0
 15 44  1  0  0  0  0
 15 45  1  0  0  0  0
 15 46  1  0  0  0  0
 16 47  1  0  0  0  0
 16 48  1  0  0  0  0
 16 49  1  0  0  0  0
 17  2  1  1  0  0  0
 17 18  2  0  0  0  0
 17 19  1  0  0  0  0
 17 20  1  0  0  0  0
 20 21  1  0  0  0  0
 21 22  2  0  0  0  0
 21 23  1  0  0  0  0
 21 24  1  0  0  0  0
M  END
$$$$
