GOP
 OpenBabel04161911013D

 43 42  0  0  1  0  0  0  0  0999 V2000
   77.0870   28.7312   -5.0879 O   0  0  0  0  0  0  0  0  0  0  0  0
   78.0070   29.3372   -4.1848 C   0  0  0  0  0  0  0  0  0  0  0  0
   79.1526   28.3443   -3.9094 C   0  0  1  0  0  0  0  0  0  0  0  0
   80.3489   28.7902   -4.5602 O   0  0  0  0  0  0  0  0  0  0  0  0
   79.3066   28.2237   -2.3913 C   0  0  1  0  0  0  0  0  0  0  0  0
   78.1244   27.5803   -1.8661 O   0  0  0  0  0  0  0  0  0  0  0  0
   80.5522   27.5118   -1.8420 C   0  0  2  0  0  0  0  0  0  0  0  0
   81.7598   28.0212   -2.4136 O   0  0  0  0  0  0  0  0  0  0  0  0
   80.5177   25.9852   -2.0367 C   0  0  1  0  0  0  0  0  0  0  0  0
   80.7449   25.6530   -3.4165 O   0  0  0  0  0  0  0  0  0  0  0  0
   81.4974   25.2121   -1.1536 C   0  0  0  0  0  0  0  0  0  0  0  0
   82.9136   25.6003   -1.3082 N   0  3  0  0  0  0  0  0  0  0  0  0
   83.7338   25.3287   -0.0239 C   0  0  2  0  0  0  0  0  0  0  0  0
   84.0054   26.6208    0.7660 C   0  0  0  0  0  0  0  0  0  0  0  0
   83.5845   27.6418    0.1446 O   0  0  0  0  0  0  0  0  0  0  0  0
   84.9955   24.5609   -0.3860 C   0  0  0  0  0  0  0  0  0  0  0  0
   86.0871   25.3965   -1.0374 C   0  0  0  0  0  0  0  0  0  0  0  0
   87.0872   24.4712   -1.6770 C   0  0  0  0  0  0  0  0  0  0  0  0
   88.1204   24.0992   -1.1364 O   0  0  0  0  0  0  0  0  0  0  0  0
   86.7274   23.9619   -2.8932 N   0  0  0  0  0  0  0  0  0  0  0  0
   84.5826   26.4884    1.8832 O   0  0  0  0  0  0  0  0  0  0  0  0
   76.7988   27.9064   -4.6498 H   0  0  0  0  0  0  0  0  0  0  0  0
   77.4507   29.5915   -3.2744 H   0  0  0  0  0  0  0  0  0  0  0  0
   78.3688   30.2693   -4.6226 H   0  0  0  0  0  0  0  0  0  0  0  0
   78.9139   27.3638   -4.3503 H   0  0  0  0  0  0  0  0  0  0  0  0
   80.1165   28.9187   -5.5003 H   0  0  0  0  0  0  0  0  0  0  0  0
   79.3335   29.2399   -1.9780 H   0  0  0  0  0  0  0  0  0  0  0  0
   78.1974   27.5578   -0.8935 H   0  0  0  0  0  0  0  0  0  0  0  0
   80.5820   27.7075   -0.7658 H   0  0  0  0  0  0  0  0  0  0  0  0
   81.5750   28.1361   -3.3748 H   0  0  0  0  0  0  0  0  0  0  0  0
   79.5211   25.6166   -1.7703 H   0  0  0  0  0  0  0  0  0  0  0  0
   80.6342   24.6918   -3.5134 H   0  0  0  0  0  0  0  0  0  0  0  0
   81.4675   24.1518   -1.4180 H   0  0  0  0  0  0  0  0  0  0  0  0
   81.2126   25.3352   -0.1031 H   0  0  0  0  0  0  0  0  0  0  0  0
   83.3544   25.2383   -2.1525 H   0  0  0  0  0  0  0  0  0  0  0  0
   83.1107   24.6760    0.5968 H   0  0  0  0  0  0  0  0  0  0  0  0
   84.7193   23.7124   -1.0304 H   0  0  0  0  0  0  0  0  0  0  0  0
   85.4003   24.1141    0.5334 H   0  0  0  0  0  0  0  0  0  0  0  0
   86.6071   26.0106   -0.2903 H   0  0  0  0  0  0  0  0  0  0  0  0
   85.6906   26.0773   -1.7977 H   0  0  0  0  0  0  0  0  0  0  0  0
   87.3759   23.3119   -3.3205 H   0  0  0  0  0  0  0  0  0  0  0  0
   85.9097   24.2434   -3.4174 H   0  0  0  0  0  0  0  0  0  0  0  0
   82.9833   26.6589   -1.3811 H   0  0  0  0  0  0  0  0  0  0  0  0
  1  2  1  0  0  0  0
  1 22  1  0  0  0  0
  2  3  1  0  0  0  0
  2 23  1  0  0  0  0
  2 24  1  0  0  0  0
  3  4  1  0  0  0  0
  3  5  1  0  0  0  0
  3 25  1  6  0  0  0
  4 26  1  0  0  0  0
  5  6  1  0  0  0  0
  5  7  1  0  0  0  0
  5 27  1  1  0  0  0
  6 28  1  0  0  0  0
  7  8  1  0  0  0  0
  7  9  1  0  0  0  0
  7 29  1  1  0  0  0
  8 30  1  0  0  0  0
  9 10  1  0  0  0  0
  9 11  1  0  0  0  0
  9 31  1  1  0  0  0
 10 32  1  0  0  0  0
 11 12  1  0  0  0  0
 11 33  1  0  0  0  0
 11 34  1  0  0  0  0
 12 13  1  0  0  0  0
 12 35  1  0  0  0  0
 12 43  1  0  0  0  0
 13 14  1  0  0  0  0
 13 16  1  0  0  0  0
 13 36  1  1  0  0  0
 14 15  2  0  0  0  0
 14 21  1  0  0  0  0
 16 17  1  0  0  0  0
 16 37  1  0  0  0  0
 16 38  1  0  0  0  0
 17 18  1  0  0  0  0
 17 39  1  0  0  0  0
 17 40  1  0  0  0  0
 18 19  2  0  0  0  0
 18 20  1  0  0  0  0
 20 41  1  0  0  0  0
 20 42  1  0  0  0  0
M  CHG  1  12   1
M  END
$$$$
