GSH
 OpenBabel04161910253D

 36 35  0  0  1  0  0  0  0  0999 V2000
   -3.8400  -27.9300   19.2222 N   0  3  0  0  0  0  0  0  0  0  0  0
   -3.2164  -27.7627   17.8788 C   0  0  2  0  0  0  0  0  0  0  0  0
   -3.6099  -26.4152   17.2107 C   0  0  0  0  0  0  0  0  0  0  0  0
   -2.7107  -25.9035   16.5098 O   0  0  0  0  0  0  0  0  0  0  0  0
   -4.7558  -25.9841   17.5232 O   0  0  0  0  0  0  0  0  0  0  0  0
   -3.6441  -28.9286   17.0007 C   0  0  0  0  0  0  0  0  0  0  0  0
   -2.6181  -29.0855   15.8592 C   0  0  0  0  0  0  0  0  0  0  0  0
   -2.8855  -30.3668   15.0599 C   0  0  0  0  0  0  0  0  0  0  0  0
   -3.2120  -31.3305   15.6557 O   0  0  0  0  0  0  0  0  0  0  0  0
   -2.7010  -30.3277   13.7034 N   0  0  0  0  0  0  0  0  0  0  0  0
   -2.9124  -31.6175   13.0139 C   0  0  2  0  0  0  0  0  0  0  0  0
   -1.5655  -32.1529   12.4883 C   0  0  0  0  0  0  0  0  0  0  0  0
   -1.3958  -32.5382   11.3840 O   0  0  0  0  0  0  0  0  0  0  0  0
   -3.8485  -31.5867   11.8256 C   0  0  0  0  0  0  0  0  0  0  0  0
   -4.9083  -30.0984   11.8145 S   0  0  0  0  0  0  0  0  0  0  0  0
   -0.5643  -31.9933   13.4141 N   0  0  0  0  0  0  0  0  0  0  0  0
    0.7017  -32.6882   13.1943 C   0  0  0  0  0  0  0  0  0  0  0  0
    0.5391  -34.0152   14.0009 C   0  0  0  0  0  0  0  0  0  0  0  0
   -0.6260  -34.1859   14.5038 O   0  0  0  0  0  0  0  0  0  0  0  0
    1.5593  -34.7299   14.1443 O   0  0  0  0  0  0  0  0  0  0  0  0
   -3.5781  -28.8213   19.6303 H   0  0  0  0  0  0  0  0  0  0  0  0
   -3.5296  -27.1397   19.7967 H   0  0  0  0  0  0  0  0  0  0  0  0
   -2.1382  -27.8201   18.0626 H   0  0  0  0  0  0  0  0  0  0  0  0
   -4.6354  -28.7271   16.5738 H   0  0  0  0  0  0  0  0  0  0  0  0
   -3.7091  -29.8630   17.5846 H   0  0  0  0  0  0  0  0  0  0  0  0
   -1.6155  -29.1512   16.3176 H   0  0  0  0  0  0  0  0  0  0  0  0
   -2.6634  -28.2076   15.2195 H   0  0  0  0  0  0  0  0  0  0  0  0
   -2.4430  -29.5292   13.1334 H   0  0  0  0  0  0  0  0  0  0  0  0
   -3.3575  -32.3334   13.7083 H   0  0  0  0  0  0  0  0  0  0  0  0
   -4.5499  -32.4039   11.9001 H   0  0  0  0  0  0  0  0  0  0  0  0
   -3.2978  -31.6411   10.8921 H   0  0  0  0  0  0  0  0  0  0  0  0
   -3.9514  -29.1675   11.7480 H   0  0  0  0  0  0  0  0  0  0  0  0
   -0.7711  -31.8415   14.4063 H   0  0  0  0  0  0  0  0  0  0  0  0
    1.5170  -32.0288   13.5541 H   0  0  0  0  0  0  0  0  0  0  0  0
    0.8592  -32.8428   12.1125 H   0  0  0  0  0  0  0  0  0  0  0  0
   -4.8580  -27.8472   19.0918 H   0  0  0  0  0  0  0  0  0  0  0  0
  1  2  1  0  0  0  0
  1 21  1  0  0  0  0
  1 22  1  0  0  0  0
  1 36  1  0  0  0  0
  2  3  1  0  0  0  0
  2  6  1  0  0  0  0
  2 23  1  1  0  0  0
  3  4  2  0  0  0  0
  3  5  1  0  0  0  0
  6  7  1  0  0  0  0
  6 24  1  0  0  0  0
  6 25  1  0  0  0  0
  7  8  1  0  0  0  0
  7 26  1  0  0  0  0
  7 27  1  0  0  0  0
  8  9  2  0  0  0  0
  8 10  1  0  0  0  0
 10 11  1  0  0  0  0
 10 28  1  0  0  0  0
 11 12  1  0  0  0  0
 11 14  1  0  0  0  0
 11 29  1  1  0  0  0
 12 13  2  0  0  0  0
 12 16  1  0  0  0  0
 14 15  1  0  0  0  0
 14 30  1  0  0  0  0
 14 31  1  0  0  0  0
 15 32  1  0  0  0  0
 16 17  1  0  0  0  0
 16 33  1  0  0  0  0
 17 18  1  0  0  0  0
 17 34  1  0  0  0  0
 17 35  1  0  0  0  0
 18 19  2  0  0  0  0
 18 20  1  0  0  0  0
M  CHG  1   1   1
M  END
$$$$
