GSP
 OpenBabel04161910423D

 44 46  0  0  1  0  0  0  0  0999 V2000
   21.6505   28.8896   83.7290 P   0  0  2  0  0  0  0  0  0  0  0  0
   23.1188   29.4122   84.2089 O   0  0  0  0  0  0  0  0  0  0  0  0
   20.5839   30.4412   83.0626 S   0  0  0  0  0  0  0  0  0  0  0  0
   20.9674   28.1730   84.8839 O   0  0  0  0  0  0  0  0  0  0  0  0
   21.9024   27.9366   82.5446 O   0  0  0  0  0  0  0  0  0  0  0  0
   23.3719   30.3001   85.5448 P   0  0  1  0  0  0  0  0  0  0  0  0
   23.0635   31.7723   85.2842 O   0  0  0  0  0  0  0  0  0  0  0  0
   22.8074   29.6499   86.7845 O   0  0  0  0  0  0  0  0  0  0  0  0
   25.7774   29.2004   86.6065 P   0  0  2  0  0  0  0  0  0  0  0  0
   25.5963   27.7509   86.2138 O   0  0  0  0  0  0  0  0  0  0  0  0
   25.8243   29.6270   88.0644 O   0  0  0  0  0  0  0  0  0  0  0  0
   24.9967   30.2340   85.6537 O   0  0  0  0  0  0  0  0  0  0  0  0
   27.3300   29.5153   86.1315 O   0  0  0  0  0  0  0  0  0  0  0  0
   27.6873   29.2596   84.7874 C   0  0  0  0  0  0  0  0  0  0  0  0
   29.1902   29.5032   84.6171 C   0  0  1  0  0  0  0  0  0  0  0  0
   29.5613   30.8506   85.0289 O   0  0  0  0  0  0  0  0  0  0  0  0
   30.0495   28.5273   85.4226 C   0  0  1  0  0  0  0  0  0  0  0  0
   31.1729   28.1248   84.6045 O   0  0  0  0  0  0  0  0  0  0  0  0
   30.5667   29.3452   86.5904 C   0  0  1  0  0  0  0  0  0  0  0  0
   31.8670   28.9008   87.0194 O   0  0  0  0  0  0  0  0  0  0  0  0
   30.6275   30.7327   85.9754 C   0  0  2  0  0  0  0  0  0  0  0  0
   30.5892   31.8220   86.9362 N   0  3  0  0  0  0  0  0  0  0  0  0
   29.7821   31.9001   88.0665 C   0  0  0  0  0  0  0  0  0  0  0  0
   30.0589   32.9753   88.7928 N   0  0  0  0  0  0  0  0  0  0  0  0
   31.0333   33.6379   88.0975 C   0  0  0  0  0  0  0  0  0  0  0  0
   31.7053   34.9023   88.3487 C   0  0  0  0  0  0  0  0  0  0  0  0
   31.5134   35.6330   89.3349 O   0  0  0  0  0  0  0  0  0  0  0  0
   32.6686   35.2520   87.4091 N   0  3  0  0  0  0  0  0  0  0  0  0
   33.0280   34.4866   86.3170 C   0  0  0  0  0  0  0  0  0  0  0  0
   33.9549   34.9552   85.5504 N   0  0  0  0  0  0  0  0  0  0  0  0
   32.3846   33.2903   86.1476 N   0  3  0  0  0  0  0  0  0  0  0  0
   31.3960   32.9102   86.9795 C   0  0  0  0  0  0  0  0  0  0  0  0
   27.1452   29.9370   84.1229 H   0  0  0  0  0  0  0  0  0  0  0  0
   27.4618   28.2222   84.5111 H   0  0  0  0  0  0  0  0  0  0  0  0
   29.4545   29.4185   83.5553 H   0  0  0  0  0  0  0  0  0  0  0  0
   29.5212   27.6226   85.7381 H   0  0  0  0  0  0  0  0  0  0  0  0
   31.7260   27.5582   85.1658 H   0  0  0  0  0  0  0  0  0  0  0  0
   29.8761   29.2994   87.4367 H   0  0  0  0  0  0  0  0  0  0  0  0
   31.7476   27.9846   87.3187 H   0  0  0  0  0  0  0  0  0  0  0  0
   31.5620   30.8450   85.4126 H   0  0  0  0  0  0  0  0  0  0  0  0
   29.0330   31.1525   88.3256 H   0  0  0  0  0  0  0  0  0  0  0  0
   33.1611   36.1148   87.5832 H   0  0  0  0  0  0  0  0  0  0  0  0
   34.0858   34.2689   84.7759 H   0  0  0  0  0  0  0  0  0  0  0  0
   32.5597   32.7764   85.2849 H   0  0  0  0  0  0  0  0  0  0  0  0
  1  2  1  1  0  0  0
  1  3  1  0  0  0  0
  1  4  2  0  0  0  0
  1  5  1  0  0  0  0
  6  2  1  6  0  0  0
  6  7  2  0  0  0  0
  6  8  1  0  0  0  0
  6 12  1  0  0  0  0
  9 10  2  6  0  0  0
  9 11  1  0  0  0  0
  9 12  1  0  0  0  0
  9 13  1  0  0  0  0
 13 14  1  0  0  0  0
 14 15  1  0  0  0  0
 14 33  1  0  0  0  0
 14 34  1  0  0  0  0
 15 16  1  0  0  0  0
 15 17  1  0  0  0  0
 15 35  1  6  0  0  0
 16 21  1  0  0  0  0
 17 18  1  0  0  0  0
 17 19  1  0  0  0  0
 17 36  1  1  0  0  0
 18 37  1  0  0  0  0
 19 20  1  0  0  0  0
 19 21  1  0  0  0  0
 19 38  1  1  0  0  0
 20 39  1  0  0  0  0
 21 22  1  0  0  0  0
 21 40  1  6  0  0  0
 22 23  2  0  0  0  0
 22 32  1  0  0  0  0
 23 24  1  0  0  0  0
 23 41  1  0  0  0  0
 24 25  2  0  0  0  0
 25 26  1  0  0  0  0
 25 32  1  0  0  0  0
 26 27  2  0  0  0  0
 26 28  1  0  0  0  0
 28 29  1  0  0  0  0
 28 42  1  0  0  0  0
 29 30  2  0  0  0  0
 29 31  1  0  0  0  0
 30 43  1  0  0  0  0
 31 32  2  0  0  0  0
 31 44  1  0  0  0  0
M  CHG  3  22   1  28   1  31   1
M  END
$$$$
