GTP
 OpenBabel04161910093D

 44 46  0  0  1  0  0  0  0  0999 V2000
   -7.4293   -0.2372  -21.0759 P   0  0  0  0  0  0  0  0  0  0  0  0
   -7.5621    1.2300  -21.4974 O   0  0  0  0  0  0  0  0  0  0  0  0
   -8.7648   -0.9475  -20.9191 O   0  0  0  0  0  0  0  0  0  0  0  0
   -6.5444   -0.3782  -19.8246 O   0  0  0  0  0  0  0  0  0  0  0  0
   -6.5958   -0.9948  -22.2458 O   0  0  0  0  0  0  0  0  0  0  0  0
   -7.2562   -1.9956  -23.3265 P   0  0  2  0  0  0  0  0  0  0  0  0
   -8.1817   -1.3166  -24.3309 O   0  0  0  0  0  0  0  0  0  0  0  0
   -7.7894   -3.2764  -22.6741 O   0  0  0  0  0  0  0  0  0  0  0  0
   -5.8782   -2.4646  -24.0824 O   0  0  0  0  0  0  0  0  0  0  0  0
   -4.9175   -1.4600  -24.8966 P   0  0  1  0  0  0  0  0  0  0  0  0
   -4.5551   -2.0641  -26.2522 O   0  0  0  0  0  0  0  0  0  0  0  0
   -5.3555   -0.0256  -24.8982 O   0  0  0  0  0  0  0  0  0  0  0  0
   -3.4879   -1.5456  -24.0492 O   0  0  0  0  0  0  0  0  0  0  0  0
   -3.2959   -0.6754  -22.9294 C   0  0  0  0  0  0  0  0  0  0  0  0
   -2.1179    0.2659  -23.2063 C   0  0  1  0  0  0  0  0  0  0  0  0
   -0.8541   -0.4683  -23.2821 O   0  0  0  0  0  0  0  0  0  0  0  0
   -2.2517    1.0193  -24.5147 C   0  0  1  0  0  0  0  0  0  0  0  0
   -1.6818    2.3422  -24.2805 O   0  0  0  0  0  0  0  0  0  0  0  0
   -1.3359    0.2835  -25.4832 C   0  0  1  0  0  0  0  0  0  0  0  0
   -0.8252    1.1519  -26.5174 O   0  0  0  0  0  0  0  0  0  0  0  0
   -0.2381   -0.1725  -24.5362 C   0  0  2  0  0  0  0  0  0  0  0  0
    0.5290   -1.3309  -24.9224 N   0  3  0  0  0  0  0  0  0  0  0  0
    0.0523   -2.5967  -25.2142 C   0  0  0  0  0  0  0  0  0  0  0  0
    1.0406   -3.4651  -25.4273 N   0  0  0  0  0  0  0  0  0  0  0  0
    2.1904   -2.7340  -25.2353 C   0  0  0  0  0  0  0  0  0  0  0  0
    3.5875   -3.1541  -25.3258 C   0  0  0  0  0  0  0  0  0  0  0  0
    3.9581   -4.2651  -25.5894 O   0  0  0  0  0  0  0  0  0  0  0  0
    4.5200   -2.1109  -25.0749 N   0  3  0  0  0  0  0  0  0  0  0  0
    4.1732   -0.8201  -24.7546 C   0  0  0  0  0  0  0  0  0  0  0  0
    5.1018    0.0170  -24.5460 N   0  0  0  0  0  0  0  0  0  0  0  0
    2.8348   -0.5023  -24.6865 N   0  3  0  0  0  0  0  0  0  0  0  0
    1.8986   -1.4530  -24.9277 C   0  0  0  0  0  0  0  0  0  0  0  0
   -3.0572   -1.2806  -22.0460 H   0  0  0  0  0  0  0  0  0  0  0  0
   -4.1796   -0.0731  -22.7245 H   0  0  0  0  0  0  0  0  0  0  0  0
   -1.9999    0.9674  -22.3675 H   0  0  0  0  0  0  0  0  0  0  0  0
   -3.2773    1.0997  -24.8694 H   0  0  0  0  0  0  0  0  0  0  0  0
   -1.8313    2.8310  -25.1062 H   0  0  0  0  0  0  0  0  0  0  0  0
   -1.8424   -0.5656  -25.9433 H   0  0  0  0  0  0  0  0  0  0  0  0
   -0.3405    1.8613  -26.0666 H   0  0  0  0  0  0  0  0  0  0  0  0
    0.4737    0.6723  -24.3953 H   0  0  0  0  0  0  0  0  0  0  0  0
   -1.0064   -2.8497  -25.2601 H   0  0  0  0  0  0  0  0  0  0  0  0
    5.4951   -2.3849  -25.1416 H   0  0  0  0  0  0  0  0  0  0  0  0
    4.6911    0.9376  -24.3161 H   0  0  0  0  0  0  0  0  0  0  0  0
    2.5790    0.4326  -24.4505 H   0  0  0  0  0  0  0  0  0  0  0  0
  1  2  2  0  0  0  0
  1  3  1  0  0  0  0
  1  4  1  0  0  0  0
  1  5  1  0  0  0  0
  6  5  1  1  0  0  0
  6  7  2  0  0  0  0
  6  8  1  0  0  0  0
  6  9  1  0  0  0  0
 10  9  1  1  0  0  0
 10 11  2  0  0  0  0
 10 12  1  0  0  0  0
 10 13  1  0  0  0  0
 13 14  1  0  0  0  0
 14 15  1  0  0  0  0
 14 33  1  0  0  0  0
 14 34  1  0  0  0  0
 15 16  1  0  0  0  0
 15 17  1  0  0  0  0
 15 35  1  1  0  0  0
 16 21  1  0  0  0  0
 17 18  1  0  0  0  0
 17 19  1  0  0  0  0
 17 36  1  6  0  0  0
 18 37  1  0  0  0  0
 19 20  1  0  0  0  0
 19 21  1  0  0  0  0
 19 38  1  6  0  0  0
 20 39  1  0  0  0  0
 21 22  1  0  0  0  0
 21 40  1  1  0  0  0
 22 23  2  0  0  0  0
 22 32  1  0  0  0  0
 23 24  1  0  0  0  0
 23 41  1  0  0  0  0
 24 25  2  0  0  0  0
 25 26  1  0  0  0  0
 25 32  1  0  0  0  0
 26 27  2  0  0  0  0
 26 28  1  0  0  0  0
 28 29  1  0  0  0  0
 28 42  1  0  0  0  0
 29 30  2  0  0  0  0
 29 31  1  0  0  0  0
 30 43  1  0  0  0  0
 31 32  2  0  0  0  0
 31 44  1  0  0  0  0
M  CHG  3  22   1  28   1  31   1
M  END
$$$$
