GTP
 OpenBabel04161910283D

 44 46  0  0  1  0  0  0  0  0999 V2000
    7.1184  -11.3581   27.5281 P   0  0  0  0  0  0  0  0  0  0  0  0
    6.4965  -10.3318   26.5959 O   0  0  0  0  0  0  0  0  0  0  0  0
    8.2338  -12.1744   26.8553 O   0  0  0  0  0  0  0  0  0  0  0  0
    6.0635  -12.2901   28.1537 O   0  0  0  0  0  0  0  0  0  0  0  0
    7.7988  -10.6144   28.8055 O   0  0  0  0  0  0  0  0  0  0  0  0
    8.4591   -9.1416   28.7913 P   0  0  2  0  0  0  0  0  0  0  0  0
    7.6104   -8.0786   28.1364 O   0  0  0  0  0  0  0  0  0  0  0  0
    9.9313   -9.2209   28.3720 O   0  0  0  0  0  0  0  0  0  0  0  0
    8.4644   -8.8587   30.4105 O   0  0  0  0  0  0  0  0  0  0  0  0
    7.2320   -8.1678   31.1905 P   0  0  2  0  0  0  0  0  0  0  0  0
    5.8496   -8.6861   30.8853 O   0  0  0  0  0  0  0  0  0  0  0  0
    7.4376   -6.6591   31.3307 O   0  0  0  0  0  0  0  0  0  0  0  0
    7.5537   -8.7057   32.7278 O   0  0  0  0  0  0  0  0  0  0  0  0
    7.7373  -10.0998   32.9754 C   0  0  0  0  0  0  0  0  0  0  0  0
    7.5591  -10.3087   34.4767 C   0  0  1  0  0  0  0  0  0  0  0  0
    8.7467   -9.7926   35.1543 O   0  0  0  0  0  0  0  0  0  0  0  0
    6.3574   -9.5432   35.0168 C   0  0  1  0  0  0  0  0  0  0  0  0
    5.7740  -10.3002   36.1058 O   0  0  0  0  0  0  0  0  0  0  0  0
    6.9349   -8.2767   35.6115 C   0  0  1  0  0  0  0  0  0  0  0  0
    6.1788   -7.8432   36.7645 O   0  0  0  0  0  0  0  0  0  0  0  0
    8.3332   -8.7063   35.9829 C   0  0  2  0  0  0  0  0  0  0  0  0
    9.2786   -7.6225   35.8889 N   0  3  0  0  0  0  0  0  0  0  0  0
    9.4930   -6.7573   34.8367 C   0  0  0  0  0  0  0  0  0  0  0  0
   10.4061   -5.8303   35.1513 N   0  0  0  0  0  0  0  0  0  0  0  0
   10.8030   -6.1563   36.4280 C   0  0  0  0  0  0  0  0  0  0  0  0
   11.7880   -5.5393   37.2913 C   0  0  0  0  0  0  0  0  0  0  0  0
   12.4615   -4.5719   37.0291 O   0  0  0  0  0  0  0  0  0  0  0  0
   11.9268   -6.1412   38.5580 N   0  3  0  0  0  0  0  0  0  0  0  0
   11.2145   -7.2303   38.9887 C   0  0  0  0  0  0  0  0  0  0  0  0
   11.4580   -7.6465   40.1561 N   0  0  0  0  0  0  0  0  0  0  0  0
   10.2860   -7.7733   38.1198 N   0  3  0  0  0  0  0  0  0  0  0  0
   10.1244   -7.2251   36.8912 C   0  0  0  0  0  0  0  0  0  0  0  0
    8.7555  -10.3822   32.7015 H   0  0  0  0  0  0  0  0  0  0  0  0
    7.0080  -10.7080   32.4429 H   0  0  0  0  0  0  0  0  0  0  0  0
    7.4767  -11.3758   34.7283 H   0  0  0  0  0  0  0  0  0  0  0  0
    5.6124   -9.3340   34.2470 H   0  0  0  0  0  0  0  0  0  0  0  0
    5.0025   -9.7762   36.3854 H   0  0  0  0  0  0  0  0  0  0  0  0
    6.9556   -7.4671   34.8898 H   0  0  0  0  0  0  0  0  0  0  0  0
    6.2062   -8.5782   37.4009 H   0  0  0  0  0  0  0  0  0  0  0  0
    8.3565   -9.0968   37.0164 H   0  0  0  0  0  0  0  0  0  0  0  0
    8.9523   -6.7864   33.8832 H   0  0  0  0  0  0  0  0  0  0  0  0
   12.6204   -5.7132   39.1621 H   0  0  0  0  0  0  0  0  0  0  0  0
   10.8696   -8.4629   40.3750 H   0  0  0  0  0  0  0  0  0  0  0  0
    9.7752   -8.5710   38.4181 H   0  0  0  0  0  0  0  0  0  0  0  0
  1  2  2  0  0  0  0
  1  3  1  0  0  0  0
  1  4  1  0  0  0  0
  1  5  1  0  0  0  0
  6  5  1  6  0  0  0
  6  7  2  0  0  0  0
  6  8  1  0  0  0  0
  6  9  1  0  0  0  0
 10  9  1  6  0  0  0
 10 11  2  0  0  0  0
 10 12  1  0  0  0  0
 10 13  1  0  0  0  0
 13 14  1  0  0  0  0
 14 15  1  0  0  0  0
 14 33  1  0  0  0  0
 14 34  1  0  0  0  0
 15 16  1  0  0  0  0
 15 17  1  0  0  0  0
 15 35  1  1  0  0  0
 16 21  1  0  0  0  0
 17 18  1  0  0  0  0
 17 19  1  0  0  0  0
 17 36  1  6  0  0  0
 18 37  1  0  0  0  0
 19 20  1  0  0  0  0
 19 21  1  0  0  0  0
 19 38  1  6  0  0  0
 20 39  1  0  0  0  0
 21 22  1  0  0  0  0
 21 40  1  1  0  0  0
 22 23  2  0  0  0  0
 22 32  1  0  0  0  0
 23 24  1  0  0  0  0
 23 41  1  0  0  0  0
 24 25  2  0  0  0  0
 25 26  1  0  0  0  0
 25 32  1  0  0  0  0
 26 27  2  0  0  0  0
 26 28  1  0  0  0  0
 28 29  1  0  0  0  0
 28 42  1  0  0  0  0
 29 30  2  0  0  0  0
 29 31  1  0  0  0  0
 30 43  1  0  0  0  0
 31 32  2  0  0  0  0
 31 44  1  0  0  0  0
M  CHG  3  22   1  28   1  31   1
M  END
$$$$
