HBP
 OpenBabel04161909403D

 54 55  0  0  1  0  0  0  0  0999 V2000
   59.0599  -33.1243   -1.2684 C   0  0  0  0  0  0  0  0  0  0  0  0
   58.1902  -35.4657   -0.7981 C   0  0  0  0  0  0  0  0  0  0  0  0
   62.0591  -33.5705   -5.3048 O   0  0  0  0  0  0  0  0  0  0  0  0
   61.0978  -32.5635   -5.0251 N   0  0  0  0  0  0  0  0  0  0  0  0
   60.4762  -32.7721   -3.8813 C   0  0  0  0  0  0  0  0  0  0  0  0
   59.4776  -31.7753   -3.3802 C   0  0  0  0  0  0  0  0  0  0  0  0
   59.2641  -30.6924   -4.1881 C   0  0  0  0  0  0  0  0  0  0  0  0
   57.6337  -29.9251   -2.4257 C   0  0  0  0  0  0  0  0  0  0  0  0
   57.9133  -31.0137   -1.7203 C   0  0  0  0  0  0  0  0  0  0  0  0
   58.8246  -31.9724   -2.1357 N   0  0  0  0  0  0  0  0  0  0  0  0
   57.8835  -34.0812   -1.3639 C   0  0  0  0  0  0  0  0  0  0  0  0
   58.2915  -29.6750   -3.7255 C   0  0  0  0  0  0  0  0  0  0  0  0
   56.9232  -36.3109   -0.9251 C   0  0  0  0  0  0  0  0  0  0  0  0
   56.5507  -37.1557    0.2909 C   0  0  0  0  0  0  0  0  0  0  0  0
   56.5069  -36.3635    1.5846 C   0  0  0  0  0  0  0  0  0  0  0  0
   55.1607  -36.3701    2.3237 C   0  0  0  0  0  0  0  0  0  0  0  0
   55.3328  -37.1119    3.5952 N   0  0  0  0  0  0  0  0  0  0  0  0
   54.2505  -37.9306    4.0431 C   0  0  0  0  0  0  0  0  0  0  0  0
   54.3218  -38.5765    5.2107 C   0  0  0  0  0  0  0  0  0  0  0  0
   55.3700  -38.3236    6.1696 C   0  0  0  0  0  0  0  0  0  0  0  0
   56.3294  -37.4590    5.8740 C   0  0  0  0  0  0  0  0  0  0  0  0
   56.2341  -36.6146    4.6615 C   0  0  1  0  0  0  0  0  0  0  0  0
   57.4156  -35.7806    4.2793 C   0  0  0  0  0  0  0  0  0  0  0  0
   58.4806  -35.8429    5.0653 N   0  0  0  0  0  0  0  0  0  0  0  0
   59.4836  -34.9488    4.5635 O   0  0  0  0  0  0  0  0  0  0  0  0
   59.1688  -32.7895   -0.2270 H   0  0  0  0  0  0  0  0  0  0  0  0
   59.9723  -33.6439   -1.5427 H   0  0  0  0  0  0  0  0  0  0  0  0
   58.5084  -35.3819    0.2439 H   0  0  0  0  0  0  0  0  0  0  0  0
   59.0059  -35.9258   -1.3711 H   0  0  0  0  0  0  0  0  0  0  0  0
   61.5724  -34.4051   -5.4309 H   0  0  0  0  0  0  0  0  0  0  0  0
   60.6599  -33.6659   -3.2822 H   0  0  0  0  0  0  0  0  0  0  0  0
   59.7368  -30.5001   -5.1034 H   0  0  0  0  0  0  0  0  0  0  0  0
   56.9252  -29.1777   -2.0899 H   0  0  0  0  0  0  0  0  0  0  0  0
   57.4286  -31.1888   -0.7778 H   0  0  0  0  0  0  0  0  0  0  0  0
   57.5891  -34.1849   -2.4162 H   0  0  0  0  0  0  0  0  0  0  0  0
   57.0324  -33.6566   -0.8096 H   0  0  0  0  0  0  0  0  0  0  0  0
   57.5015  -29.6198   -4.4826 H   0  0  0  0  0  0  0  0  0  0  0  0
   58.8265  -28.7234   -3.6418 H   0  0  0  0  0  0  0  0  0  0  0  0
   57.0482  -36.9829   -1.7801 H   0  0  0  0  0  0  0  0  0  0  0  0
   56.0798  -35.6411   -1.1298 H   0  0  0  0  0  0  0  0  0  0  0  0
   57.2896  -37.9594    0.3904 H   0  0  0  0  0  0  0  0  0  0  0  0
   55.5707  -37.6018    0.1047 H   0  0  0  0  0  0  0  0  0  0  0  0
   56.7475  -35.3208    1.3736 H   0  0  0  0  0  0  0  0  0  0  0  0
   57.2955  -36.7859    2.2220 H   0  0  0  0  0  0  0  0  0  0  0  0
   54.4214  -36.9250    1.7541 H   0  0  0  0  0  0  0  0  0  0  0  0
   54.8249  -35.3482    2.5075 H   0  0  0  0  0  0  0  0  0  0  0  0
   53.4829  -38.1618    3.3035 H   0  0  0  0  0  0  0  0  0  0  0  0
   53.5640  -39.3097    5.4697 H   0  0  0  0  0  0  0  0  0  0  0  0
   55.3705  -38.8605    7.1171 H   0  0  0  0  0  0  0  0  0  0  0  0
   57.1196  -37.1951    6.5662 H   0  0  0  0  0  0  0  0  0  0  0  0
   55.6318  -35.8248    5.0455 H   0  0  0  0  0  0  0  0  0  0  0  0
   57.3043  -35.0828    3.4496 H   0  0  0  0  0  0  0  0  0  0  0  0
   59.1500  -34.0318    4.6203 H   0  0  0  0  0  0  0  0  0  0  0  0
   55.9214  -37.8283    3.2675 H   0  0  0  0  0  0  0  0  0  0  0  0
  1 10  1  0  0  0  0
  1 11  1  0  0  0  0
  1 26  1  0  0  0  0
  1 27  1  0  0  0  0
  2 11  1  0  0  0  0
  2 13  1  0  0  0  0
  2 28  1  0  0  0  0
  2 29  1  0  0  0  0
  3  4  1  0  0  0  0
  3 30  1  0  0  0  0
  4  5  2  0  0  0  0
  5  6  1  0  0  0  0
  5 31  1  0  0  0  0
  6  7  2  0  0  0  0
  6 10  1  0  0  0  0
  7 12  1  0  0  0  0
  7 32  1  0  0  0  0
  8  9  2  0  0  0  0
  8 12  1  0  0  0  0
  8 33  1  0  0  0  0
  9 10  1  0  0  0  0
  9 34  1  0  0  0  0
 11 35  1  0  0  0  0
 11 36  1  0  0  0  0
 12 37  1  0  0  0  0
 12 38  1  0  0  0  0
 13 14  1  0  0  0  0
 13 39  1  0  0  0  0
 13 40  1  0  0  0  0
 14 15  1  0  0  0  0
 14 41  1  0  0  0  0
 14 42  1  0  0  0  0
 15 16  1  0  0  0  0
 15 43  1  0  0  0  0
 15 44  1  0  0  0  0
 16 17  1  0  0  0  0
 16 45  1  0  0  0  0
 16 46  1  0  0  0  0
 17 18  1  0  0  0  0
 17 22  1  0  0  0  0
 17 54  1  0  0  0  0
 18 19  2  0  0  0  0
 18 47  1  0  0  0  0
 19 20  1  0  0  0  0
 19 48  1  0  0  0  0
 20 21  2  0  0  0  0
 20 49  1  0  0  0  0
 21 22  1  0  0  0  0
 21 50  1  0  0  0  0
 22 23  1  0  0  0  0
 22 51  1  1  0  0  0
 23 24  2  0  0  0  0
 23 52  1  0  0  0  0
 24 25  1  0  0  0  0
 25 53  1  0  0  0  0
M  END
$$$$
