I3P
 OpenBabel04161910313D

 33 33  0  0  1  0  0  0  0  0999 V2000
   19.2163   11.1717  125.9971 C   0  0  2  0  0  0  0  0  0  0  0  0
   19.2728    9.6597  125.7844 C   0  0  1  0  0  0  0  0  0  0  0  0
   17.9038    9.0352  125.4336 C   0  0  1  0  0  0  0  0  0  0  0  0
   16.9137    9.8472  124.5383 C   0  0  2  0  0  0  0  0  0  0  0  0
   17.2446   11.3743  124.3095 C   0  0  1  0  0  0  0  0  0  0  0  0
   18.7035   11.7981  124.6698 C   0  0  1  0  0  0  0  0  0  0  0  0
   20.5062   11.7548  126.3492 O   0  0  0  0  0  0  0  0  0  0  0  0
   20.2488    9.3410  124.7514 O   0  0  0  0  0  0  0  0  0  0  0  0
   18.2068    7.7499  124.8113 O   0  0  0  0  0  0  0  0  0  0  0  0
   15.6108    9.7434  125.1828 O   0  0  0  0  0  0  0  0  0  0  0  0
   16.9888   11.6731  122.9074 O   0  0  0  0  0  0  0  0  0  0  0  0
   18.7904   13.2408  124.7727 O   0  0  0  0  0  0  0  0  0  0  0  0
   21.6039   10.9989  127.2901 P   0  0  0  0  0  0  0  0  0  0  0  0
   22.1813    9.9255  126.3671 O   0  0  0  0  0  0  0  0  0  0  0  0
   22.6429   12.0680  127.6598 O   0  0  0  0  0  0  0  0  0  0  0  0
   20.8584   10.4584  128.4902 O   0  0  0  0  0  0  0  0  0  0  0  0
   14.3734    8.8245  124.6088 P   0  0  0  0  0  0  0  0  0  0  0  0
   14.8594    8.0496  123.3932 O   0  0  0  0  0  0  0  0  0  0  0  0
   13.2292    9.7934  124.3291 O   0  0  0  0  0  0  0  0  0  0  0  0
   14.0129    7.8983  125.7786 O   0  0  0  0  0  0  0  0  0  0  0  0
   16.7004   13.1805  122.3493 P   0  0  0  0  0  0  0  0  0  0  0  0
   16.2526   13.0142  120.8978 O   0  0  0  0  0  0  0  0  0  0  0  0
   15.6660   13.8297  123.2492 O   0  0  0  0  0  0  0  0  0  0  0  0
   18.0582   13.8771  122.4364 O   0  0  0  0  0  0  0  0  0  0  0  0
   18.5216   11.4268  126.8080 H   0  0  0  0  0  0  0  0  0  0  0  0
   19.6374    9.1501  126.6823 H   0  0  0  0  0  0  0  0  0  0  0  0
   17.4057    8.7838  126.3786 H   0  0  0  0  0  0  0  0  0  0  0  0
   16.8482    9.3623  123.5618 H   0  0  0  0  0  0  0  0  0  0  0  0
   16.5429   11.9824  124.8948 H   0  0  0  0  0  0  0  0  0  0  0  0
   19.3816   11.5276  123.8500 H   0  0  0  0  0  0  0  0  0  0  0  0
   21.0977    9.6393  125.1990 H   0  0  0  0  0  0  0  0  0  0  0  0
   18.7249    8.0334  124.0326 H   0  0  0  0  0  0  0  0  0  0  0  0
   18.5150   13.5597  123.8640 H   0  0  0  0  0  0  0  0  0  0  0  0
  1  2  1  0  0  0  0
  1  6  1  0  0  0  0
  1  7  1  0  0  0  0
  1 25  1  1  0  0  0
  2  3  1  0  0  0  0
  2  8  1  0  0  0  0
  2 26  1  1  0  0  0
  3  4  1  0  0  0  0
  3  9  1  0  0  0  0
  3 27  1  1  0  0  0
  4  5  1  0  0  0  0
  4 10  1  0  0  0  0
  4 28  1  6  0  0  0
  5  6  1  0  0  0  0
  5 11  1  0  0  0  0
  5 29  1  1  0  0  0
  6 12  1  0  0  0  0
  6 30  1  6  0  0  0
  7 13  1  0  0  0  0
  8 31  1  0  0  0  0
  9 32  1  0  0  0  0
 10 17  1  0  0  0  0
 11 21  1  0  0  0  0
 12 33  1  0  0  0  0
 13 14  2  0  0  0  0
 13 15  1  0  0  0  0
 13 16  1  0  0  0  0
 17 18  2  0  0  0  0
 17 19  1  0  0  0  0
 17 20  1  0  0  0  0
 21 22  2  0  0  0  0
 21 23  1  0  0  0  0
 21 24  1  0  0  0  0
M  END
$$$$
