IDC
 OpenBabel04161912263D

 48 50  0  0  1  0  0  0  0  0999 V2000
   60.7077   46.8585   36.8622 C   0  0  1  0  0  0  0  0  0  0  0  0
   61.0701   48.3056   36.4975 C   0  0  1  0  0  0  0  0  0  0  0  0
   60.4302   49.2607   37.5064 C   0  0  2  0  0  0  0  0  0  0  0  0
   58.9249   48.9840   37.6678 C   0  0  1  0  0  0  0  0  0  0  0  0
   58.7102   47.4916   37.9751 C   0  0  1  0  0  0  0  0  0  0  0  0
   57.2285   47.1090   38.0695 C   0  0  0  0  0  0  0  0  0  0  0  0
   62.5012   48.4808   36.5336 O   0  0  0  0  0  0  0  0  0  0  0  0
   60.6599   50.6103   37.0811 O   0  0  0  0  0  0  0  0  0  0  0  0
   58.3637   49.7795   38.7166 O   0  0  0  0  0  0  0  0  0  0  0  0
   59.3012   46.6723   36.9529 O   0  0  0  0  0  0  0  0  0  0  0  0
   56.5924   47.2269   36.7997 O   0  0  0  0  0  0  0  0  0  0  0  0
   61.6456   41.8599   36.4571 C   0  0  1  0  0  0  0  0  0  0  0  0
   60.5689   42.2830   35.4934 C   0  0  1  0  0  0  0  0  0  0  0  0
   60.6928   43.7549   35.0701 C   0  0  2  0  0  0  0  0  0  0  0  0
   61.2099   44.6133   36.2552 C   0  0  1  0  0  0  0  0  0  0  0  0
   62.6404   44.1218   36.6506 C   0  0  1  0  0  0  0  0  0  0  0  0
   63.2496   44.9601   37.7906 C   0  0  0  0  0  0  0  0  0  0  0  0
   60.5209   41.4064   34.3632 O   0  0  0  0  0  0  0  0  0  0  0  0
   59.4014   44.2130   34.6503 O   0  0  0  0  0  0  0  0  0  0  0  0
   61.2529   45.9855   35.8591 O   0  0  0  0  0  0  0  0  0  0  0  0
   62.5888   42.6668   36.9811 N   0  3  2  0  0  0  0  0  0  0  0  0
   62.4421   44.9023   38.9664 O   0  0  0  0  0  0  0  0  0  0  0  0
   61.8528   40.6426   36.9723 N   0  3  0  0  0  0  0  0  0  0  0  0
   62.9257   40.6480   37.8266 C   0  0  0  0  0  0  0  0  0  0  0  0
   63.4281   41.9191   37.8019 C   0  0  0  0  0  0  0  0  0  0  0  0
   61.1589   46.6234   37.8293 H   0  0  0  0  0  0  0  0  0  0  0  0
   60.7414   48.5357   35.4786 H   0  0  0  0  0  0  0  0  0  0  0  0
   60.9273   49.1708   38.4850 H   0  0  0  0  0  0  0  0  0  0  0  0
   58.4151   49.2636   36.7380 H   0  0  0  0  0  0  0  0  0  0  0  0
   59.1682   47.2453   38.9430 H   0  0  0  0  0  0  0  0  0  0  0  0
   56.6913   47.7246   38.7969 H   0  0  0  0  0  0  0  0  0  0  0  0
   57.1358   46.0607   38.3756 H   0  0  0  0  0  0  0  0  0  0  0  0
   62.6890   49.2757   36.0007 H   0  0  0  0  0  0  0  0  0  0  0  0
   61.5935   50.8222   37.2561 H   0  0  0  0  0  0  0  0  0  0  0  0
   58.9702   49.8004   39.4745 H   0  0  0  0  0  0  0  0  0  0  0  0
   57.1649   46.7622   36.1656 H   0  0  0  0  0  0  0  0  0  0  0  0
   59.6396   42.1273   36.0520 H   0  0  0  0  0  0  0  0  0  0  0  0
   61.3603   43.8712   34.2072 H   0  0  0  0  0  0  0  0  0  0  0  0
   60.5162   44.4739   37.0958 H   0  0  0  0  0  0  0  0  0  0  0  0
   63.3037   44.2185   35.7797 H   0  0  0  0  0  0  0  0  0  0  0  0
   63.3490   46.0080   37.4951 H   0  0  0  0  0  0  0  0  0  0  0  0
   64.2573   44.6182   38.0450 H   0  0  0  0  0  0  0  0  0  0  0  0
   61.2617   41.6034   33.7612 H   0  0  0  0  0  0  0  0  0  0  0  0
   59.1445   43.7364   33.8378 H   0  0  0  0  0  0  0  0  0  0  0  0
   62.4400   43.9942   39.3116 H   0  0  0  0  0  0  0  0  0  0  0  0
   61.2731   39.8361   36.7391 H   0  0  0  0  0  0  0  0  0  0  0  0
   63.1952   39.7409   38.3368 H   0  0  0  0  0  0  0  0  0  0  0  0
   64.2635   42.3862   38.2970 H   0  0  0  0  0  0  0  0  0  0  0  0
  1  2  1  0  0  0  0
  1 10  1  0  0  0  0
  1 20  1  0  0  0  0
  1 26  1  1  0  0  0
  2  3  1  0  0  0  0
  2  7  1  0  0  0  0
  2 27  1  6  0  0  0
  3  4  1  0  0  0  0
  3  8  1  0  0  0  0
  3 28  1  1  0  0  0
  4  5  1  0  0  0  0
  4  9  1  0  0  0  0
  4 29  1  6  0  0  0
  5  6  1  0  0  0  0
  5 10  1  0  0  0  0
  5 30  1  1  0  0  0
  6 11  1  0  0  0  0
  6 31  1  0  0  0  0
  6 32  1  0  0  0  0
  7 33  1  0  0  0  0
  8 34  1  0  0  0  0
  9 35  1  0  0  0  0
 11 36  1  0  0  0  0
 12 13  1  0  0  0  0
 12 21  1  0  0  0  0
 12 23  1  1  0  0  0
 13 14  1  0  0  0  0
 13 18  1  0  0  0  0
 13 37  1  1  0  0  0
 14 15  1  0  0  0  0
 14 19  1  0  0  0  0
 14 38  1  6  0  0  0
 15 16  1  0  0  0  0
 15 20  1  0  0  0  0
 15 39  1  1  0  0  0
 16 17  1  0  0  0  0
 16 21  1  0  0  0  0
 16 40  1  6  0  0  0
 17 22  1  0  0  0  0
 17 41  1  0  0  0  0
 17 42  1  0  0  0  0
 18 43  1  0  0  0  0
 19 44  1  0  0  0  0
 21 25  1  6  0  0  0
 22 45  1  0  0  0  0
 23 24  1  0  0  0  0
 23 46  1  0  0  0  0
 24 25  1  0  0  0  0
 24 47  1  0  0  0  0
 25 48  1  0  0  0  0
M  CHG  2  21   1  23   1
M  END
$$$$
