IEE
 OpenBabel04161910183D

 30 31  0  0  0  0  0  0  0  0999 V2000
    0.6898   10.1820   26.1381 C   0  0  0  0  0  0  0  0  0  0  0  0
   -0.6193   10.1605   26.4945 C   0  0  0  0  0  0  0  0  0  0  0  0
   -1.0823    9.5178   28.0103 Cl  0  0  0  0  0  0  0  0  0  0  0  0
   -1.6216   10.6145   25.7361 N   0  0  0  0  0  0  0  0  0  0  0  0
   -1.2484   11.1228   24.5551 C   0  0  0  0  0  0  0  0  0  0  0  0
   -2.2582   11.5232   23.7325 N   0  0  0  0  0  0  0  0  0  0  0  0
    0.0100   11.2332   24.1233 N   0  0  0  0  0  0  0  0  0  0  0  0
    0.9675   10.7382   24.9036 C   0  0  0  0  0  0  0  0  0  0  0  0
    2.2739   10.6929   24.5239 N   0  0  0  0  0  0  0  0  0  0  0  0
    3.0639   11.7615   23.9660 C   0  0  0  0  0  0  0  0  0  0  0  0
    4.4346   11.2075   23.6332 C   0  0  0  0  0  0  0  0  0  0  0  0
    4.5895    9.8527   23.2677 C   0  0  0  0  0  0  0  0  0  0  0  0
    5.8240    9.3188   22.9886 C   0  0  0  0  0  0  0  0  0  0  0  0
    6.9448   10.1476   23.0263 C   0  0  0  0  0  0  0  0  0  0  0  0
    8.2666    9.5476   22.7002 C   0  0  0  0  0  0  0  0  0  0  0  0
    6.8112   11.5028   23.3563 C   0  0  0  0  0  0  0  0  0  0  0  0
    5.5601   12.0343   23.6635 C   0  0  0  0  0  0  0  0  0  0  0  0
    1.4631    9.7884   26.7623 H   0  0  0  0  0  0  0  0  0  0  0  0
   -3.1965   11.4858   24.0882 H   0  0  0  0  0  0  0  0  0  0  0  0
   -2.0190   11.9440   22.8554 H   0  0  0  0  0  0  0  0  0  0  0  0
    2.7287    9.8105   24.7047 H   0  0  0  0  0  0  0  0  0  0  0  0
    3.1766   12.5541   24.7186 H   0  0  0  0  0  0  0  0  0  0  0  0
    2.6277   12.1900   23.0572 H   0  0  0  0  0  0  0  0  0  0  0  0
    3.7419    9.1779   23.2071 H   0  0  0  0  0  0  0  0  0  0  0  0
    5.9154    8.2625   22.7414 H   0  0  0  0  0  0  0  0  0  0  0  0
    9.0525   10.3054   22.7393 H   0  0  0  0  0  0  0  0  0  0  0  0
    8.2309    9.1241   21.6924 H   0  0  0  0  0  0  0  0  0  0  0  0
    8.4911    8.7605   23.4232 H   0  0  0  0  0  0  0  0  0  0  0  0
    7.6891   12.1449   23.3735 H   0  0  0  0  0  0  0  0  0  0  0  0
    5.4840   13.0888   23.9297 H   0  0  0  0  0  0  0  0  0  0  0  0
  1  2  2  0  0  0  0
  1  8  1  0  0  0  0
  1 18  1  0  0  0  0
  2  3  1  0  0  0  0
  2  4  1  0  0  0  0
  4  5  2  0  0  0  0
  5  6  1  0  0  0  0
  5  7  1  0  0  0  0
  6 19  1  0  0  0  0
  6 20  1  0  0  0  0
  7  8  2  0  0  0  0
  8  9  1  0  0  0  0
  9 10  1  0  0  0  0
  9 21  1  0  0  0  0
 10 11  1  0  0  0  0
 10 22  1  0  0  0  0
 10 23  1  0  0  0  0
 11 12  2  0  0  0  0
 11 17  1  0  0  0  0
 12 13  1  0  0  0  0
 12 24  1  0  0  0  0
 13 14  2  0  0  0  0
 13 25  1  0  0  0  0
 14 15  1  0  0  0  0
 14 16  1  0  0  0  0
 15 26  1  0  0  0  0
 15 27  1  0  0  0  0
 15 28  1  0  0  0  0
 16 17  2  0  0  0  0
 16 29  1  0  0  0  0
 17 30  1  0  0  0  0
M  END
$$$$
