IM5
 OpenBabel04161910063D

 38 40  0  0  1  0  0  0  0  0999 V2000
   39.5921   -9.3015   61.3115 N   0  3  0  0  0  0  0  0  0  0  0  0
   39.3988   -8.3768   60.2966 C   0  0  0  0  0  0  0  0  0  0  0  0
   38.2348   -8.2597   59.7928 N   0  0  0  0  0  0  0  0  0  0  0  0
   40.4505   -7.6115   59.8649 N   0  3  0  0  0  0  0  0  0  0  0  0
   41.6591   -7.7746   60.4330 C   0  0  0  0  0  0  0  0  0  0  0  0
   41.8683   -8.6954   61.4400 C   0  0  0  0  0  0  0  0  0  0  0  0
   40.8059   -9.5460   61.9475 C   0  0  0  0  0  0  0  0  0  0  0  0
   40.9382  -10.3654   62.8516 O   0  0  0  0  0  0  0  0  0  0  0  0
   43.1941   -8.6156   61.7909 N   0  3  0  0  0  0  0  0  0  0  0  0
   43.8002   -7.6524   61.0137 C   0  0  0  0  0  0  0  0  0  0  0  0
   42.8708   -7.1112   60.1388 C   0  0  0  0  0  0  0  0  0  0  0  0
   42.9956   -4.6736   59.4542 N   0  3  1  0  0  0  0  0  0  0  0  0
   43.1771   -6.1004   59.0915 C   0  0  0  0  0  0  0  0  0  0  0  0
   41.5647   -4.2442   59.6380 C   0  0  0  0  0  0  0  0  0  0  0  0
   41.7600   -2.8480   60.1952 C   0  0  2  0  0  0  0  0  0  0  0  0
   42.1799   -1.9853   59.1347 O   0  0  0  0  0  0  0  0  0  0  0  0
   42.8884   -3.0437   61.2009 C   0  0  1  0  0  0  0  0  0  0  0  0
   42.3704   -3.4473   62.5726 C   0  0  0  0  0  0  0  0  0  0  0  0
   43.4778   -3.7046   63.4211 O   0  0  0  0  0  0  0  0  0  0  0  0
   43.7393   -4.1941   60.6691 C   0  0  0  0  0  0  0  0  0  0  0  0
   38.7849   -9.8494   61.5952 H   0  0  0  0  0  0  0  0  0  0  0  0
   38.2229   -7.5492   59.0344 H   0  0  0  0  0  0  0  0  0  0  0  0
   40.2587   -6.9627   59.1199 H   0  0  0  0  0  0  0  0  0  0  0  0
   43.6601   -9.1744   62.5025 H   0  0  0  0  0  0  0  0  0  0  0  0
   44.8561   -7.4268   61.1105 H   0  0  0  0  0  0  0  0  0  0  0  0
   42.5385   -6.2633   58.2215 H   0  0  0  0  0  0  0  0  0  0  0  0
   44.2234   -6.1861   58.7827 H   0  0  0  0  0  0  0  0  0  0  0  0
   41.0861   -4.9076   60.3628 H   0  0  0  0  0  0  0  0  0  0  0  0
   41.0519   -4.2772   58.6728 H   0  0  0  0  0  0  0  0  0  0  0  0
   40.8416   -2.4683   60.6383 H   0  0  0  0  0  0  0  0  0  0  0  0
   42.2624   -1.0731   59.4819 H   0  0  0  0  0  0  0  0  0  0  0  0
   43.5035   -2.1440   61.2821 H   0  0  0  0  0  0  0  0  0  0  0  0
   41.7690   -4.3650   62.5170 H   0  0  0  0  0  0  0  0  0  0  0  0
   41.7533   -2.6556   62.9988 H   0  0  0  0  0  0  0  0  0  0  0  0
   44.0112   -2.8937   63.5143 H   0  0  0  0  0  0  0  0  0  0  0  0
   44.7424   -3.8694   60.3770 H   0  0  0  0  0  0  0  0  0  0  0  0
   43.8175   -5.0168   61.3842 H   0  0  0  0  0  0  0  0  0  0  0  0
   43.3495   -4.0988   58.6723 H   0  0  0  0  0  0  0  0  0  0  0  0
  1  2  1  0  0  0  0
  1  7  1  0  0  0  0
  1 21  1  0  0  0  0
  2  3  2  0  0  0  0
  2  4  1  0  0  0  0
  3 22  1  0  0  0  0
  4  5  2  0  0  0  0
  4 23  1  0  0  0  0
  5  6  1  0  0  0  0
  5 11  1  0  0  0  0
  6  7  1  0  0  0  0
  6  9  2  0  0  0  0
  7  8  2  0  0  0  0
  9 10  1  0  0  0  0
  9 24  1  0  0  0  0
 10 11  2  0  0  0  0
 10 25  1  0  0  0  0
 11 13  1  0  0  0  0
 12 13  1  0  0  0  0
 12 14  1  0  0  0  0
 12 20  1  0  0  0  0
 12 38  1  6  0  0  0
 13 26  1  0  0  0  0
 13 27  1  0  0  0  0
 14 15  1  0  0  0  0
 14 28  1  0  0  0  0
 14 29  1  0  0  0  0
 15 16  1  0  0  0  0
 15 17  1  0  0  0  0
 15 30  1  1  0  0  0
 16 31  1  0  0  0  0
 17 18  1  0  0  0  0
 17 20  1  0  0  0  0
 17 32  1  1  0  0  0
 18 19  1  0  0  0  0
 18 33  1  0  0  0  0
 18 34  1  0  0  0  0
 19 35  1  0  0  0  0
 20 36  1  0  0  0  0
 20 37  1  0  0  0  0
M  CHG  4   1   1   4   1   9   1  12   1
M  END
$$$$
