IMP
 OpenBabel04161910523D

 34 36  0  0  1  0  0  0  0  0999 V2000
   -0.6604    1.7418   18.5149 P   0  0  0  0  0  0  0  0  0  0  0  0
   -1.9324    2.1776   17.8045 O   0  0  0  0  0  0  0  0  0  0  0  0
   -0.0720    2.7832   19.4566 O   0  0  0  0  0  0  0  0  0  0  0  0
    0.3576    1.0261   17.6438 O   0  0  0  0  0  0  0  0  0  0  0  0
   -1.1584    0.5589   19.5399 O   0  0  0  0  0  0  0  0  0  0  0  0
   -2.1891    0.8982   20.4458 C   0  0  0  0  0  0  0  0  0  0  0  0
   -1.9956    0.1660   21.7791 C   0  0  1  0  0  0  0  0  0  0  0  0
   -2.3626   -1.2436   21.6494 O   0  0  0  0  0  0  0  0  0  0  0  0
   -0.5667    0.2099   22.3322 C   0  0  1  0  0  0  0  0  0  0  0  0
   -0.6200    0.2368   23.7849 O   0  0  0  0  0  0  0  0  0  0  0  0
    0.0101   -1.1346   21.9110 C   0  0  1  0  0  0  0  0  0  0  0  0
    1.1172   -1.5498   22.7301 O   0  0  0  0  0  0  0  0  0  0  0  0
   -1.2285   -2.0288   22.0589 C   0  0  2  0  0  0  0  0  0  0  0  0
   -1.2111   -3.2766   21.3237 N   0  3  0  0  0  0  0  0  0  0  0  0
   -0.6463   -3.4883   20.0849 C   0  0  0  0  0  0  0  0  0  0  0  0
   -0.7485   -4.7448   19.6922 N   0  0  0  0  0  0  0  0  0  0  0  0
   -1.4245   -5.3548   20.6991 C   0  0  0  0  0  0  0  0  0  0  0  0
   -1.8432   -6.7427   20.8146 C   0  0  0  0  0  0  0  0  0  0  0  0
   -1.6202   -7.6404   20.0178 O   0  0  0  0  0  0  0  0  0  0  0  0
   -2.5391   -6.9813   21.9907 N   0  3  0  0  0  0  0  0  0  0  0  0
   -2.7560   -6.0237   22.9590 C   0  0  0  0  0  0  0  0  0  0  0  0
   -2.3649   -4.7807   22.9007 N   0  0  0  0  0  0  0  0  0  0  0  0
   -1.7168   -4.4972   21.7328 C   0  0  0  0  0  0  0  0  0  0  0  0
   -3.1441    0.5988   20.0021 H   0  0  0  0  0  0  0  0  0  0  0  0
   -2.2185    1.9787   20.6329 H   0  0  0  0  0  0  0  0  0  0  0  0
   -2.7003    0.5839   22.5071 H   0  0  0  0  0  0  0  0  0  0  0  0
    0.0181    1.0734   22.0001 H   0  0  0  0  0  0  0  0  0  0  0  0
    0.2986    0.3997   24.0638 H   0  0  0  0  0  0  0  0  0  0  0  0
    0.3551   -1.0744   20.8770 H   0  0  0  0  0  0  0  0  0  0  0  0
    0.7822   -1.6569   23.6351 H   0  0  0  0  0  0  0  0  0  0  0  0
   -1.3705   -2.2926   23.1158 H   0  0  0  0  0  0  0  0  0  0  0  0
   -0.1684   -2.6978   19.5146 H   0  0  0  0  0  0  0  0  0  0  0  0
   -2.8513   -7.9329   22.1125 H   0  0  0  0  0  0  0  0  0  0  0  0
   -3.3053   -6.4096   23.8297 H   0  0  0  0  0  0  0  0  0  0  0  0
  1  2  2  0  0  0  0
  1  3  1  0  0  0  0
  1  4  1  0  0  0  0
  1  5  1  0  0  0  0
  5  6  1  0  0  0  0
  6  7  1  0  0  0  0
  6 24  1  0  0  0  0
  6 25  1  0  0  0  0
  7  8  1  0  0  0  0
  7  9  1  0  0  0  0
  7 26  1  1  0  0  0
  8 13  1  0  0  0  0
  9 10  1  0  0  0  0
  9 11  1  0  0  0  0
  9 27  1  6  0  0  0
 10 28  1  0  0  0  0
 11 12  1  0  0  0  0
 11 13  1  0  0  0  0
 11 29  1  6  0  0  0
 12 30  1  0  0  0  0
 13 14  1  0  0  0  0
 13 31  1  1  0  0  0
 14 15  2  0  0  0  0
 14 23  1  0  0  0  0
 15 16  1  0  0  0  0
 15 32  1  0  0  0  0
 16 17  1  0  0  0  0
 17 18  1  0  0  0  0
 17 23  2  0  0  0  0
 18 19  2  0  0  0  0
 18 20  1  0  0  0  0
 20 21  1  0  0  0  0
 20 33  1  0  0  0  0
 21 22  2  0  0  0  0
 21 34  1  0  0  0  0
 22 23  1  0  0  0  0
M  CHG  2  14   1  20   1
M  END
$$$$
