INU
 OpenBabel04161912263D

 62 66  0  0  1  0  0  0  0  0999 V2000
   13.0050   24.1320    5.3444 C   0  0  0  0  0  0  0  0  0  0  0  0
   12.5676   22.8639    5.9805 C   0  0  0  0  0  0  0  0  0  0  0  0
   11.3838   22.5509    6.1181 O   0  0  0  0  0  0  0  0  0  0  0  0
   13.5486   22.0299    6.4273 O   0  3  0  0  0  0  0  0  0  0  0  0
   14.9048   22.4040    6.3953 C   0  0  0  0  0  0  0  0  0  0  0  0
   15.3189   23.5838    5.8837 C   0  0  0  0  0  0  0  0  0  0  0  0
   14.3128   24.4866    5.2934 C   0  0  0  0  0  0  0  0  0  0  0  0
   14.8300   25.5399    4.8268 O   0  0  0  0  0  0  0  0  0  0  0  0
   11.2165   25.8379    5.9491 C   0  0  0  0  0  0  0  0  0  0  0  0
   12.0124   26.4389    6.9517 C   0  0  0  0  0  0  0  0  0  0  0  0
   11.4616   27.2334    7.9541 C   0  0  0  0  0  0  0  0  0  0  0  0
   10.0987   27.4833    7.9498 C   0  0  0  0  0  0  0  0  0  0  0  0
    9.3065   26.9386    6.9414 C   0  0  0  0  0  0  0  0  0  0  0  0
    9.8428   26.0962    5.9695 C   0  0  0  0  0  0  0  0  0  0  0  0
   11.9110   25.0586    4.8172 C   0  0  2  0  0  0  0  0  0  0  0  0
   10.9449   24.3968    3.8309 C   0  0  0  0  0  0  0  0  0  0  0  0
   11.3580   24.2568    2.3819 C   0  0  0  0  0  0  0  0  0  0  0  0
   10.2470   25.1919    2.7524 C   0  0  0  0  0  0  0  0  0  0  0  0
   15.8014   21.3801    7.0282 C   0  0  0  0  0  0  0  0  0  0  0  0
   15.9675   21.5732    8.5357 C   0  0  0  0  0  0  0  0  0  0  0  0
   16.2138   23.0152    8.9938 C   0  0  0  0  0  0  0  0  0  0  0  0
   17.4842   23.6387    8.4130 C   0  0  0  0  0  0  0  0  0  0  0  0
   17.2654   24.6070    7.2437 C   0  0  0  0  0  0  0  0  0  0  0  0
   16.7971   23.9767    5.9239 C   0  0  0  0  0  0  0  0  0  0  0  0
    7.9403   27.2832    6.8890 N   0  0  0  0  0  0  0  0  0  0  0  0
    7.4748   28.6889    6.1141 S   0  0  0  0  0  0  0  0  0  0  0  0
    6.0860   28.9092    6.4821 O   0  0  0  0  0  0  0  0  0  0  0  0
    8.4550   29.7309    6.3104 O   0  0  0  0  0  0  0  0  0  0  0  0
    7.4784   28.2019    4.4077 C   0  0  0  0  0  0  0  0  0  0  0  0
    6.4050   27.4391    3.9320 C   0  0  0  0  0  0  0  0  0  0  0  0
    6.3737   27.0492    2.5965 C   0  0  0  0  0  0  0  0  0  0  0  0
    7.4015   27.4345    1.7358 C   0  0  0  0  0  0  0  0  0  0  0  0
    8.4600   28.2138    2.2097 C   0  0  0  0  0  0  0  0  0  0  0  0
    8.5052   28.6010    3.5509 C   0  0  0  0  0  0  0  0  0  0  0  0
   13.0953   26.3094    6.9393 H   0  0  0  0  0  0  0  0  0  0  0  0
   12.1092   27.6790    8.7030 H   0  0  0  0  0  0  0  0  0  0  0  0
    9.6685   28.1348    8.7033 H   0  0  0  0  0  0  0  0  0  0  0  0
    9.1919   25.6796    5.2102 H   0  0  0  0  0  0  0  0  0  0  0  0
   12.3837   25.8590    4.2288 H   0  0  0  0  0  0  0  0  0  0  0  0
   10.3799   23.5825    4.2679 H   0  0  0  0  0  0  0  0  0  0  0  0
   11.1095   23.3359    1.8707 H   0  0  0  0  0  0  0  0  0  0  0  0
   12.3054   24.6931    2.0791 H   0  0  0  0  0  0  0  0  0  0  0  0
   10.4428   26.2556    2.7110 H   0  0  0  0  0  0  0  0  0  0  0  0
    9.2323   24.9062    2.5031 H   0  0  0  0  0  0  0  0  0  0  0  0
   16.7847   21.3614    6.5495 H   0  0  0  0  0  0  0  0  0  0  0  0
   15.3900   20.3795    6.8424 H   0  0  0  0  0  0  0  0  0  0  0  0
   15.0744   21.1950    9.0486 H   0  0  0  0  0  0  0  0  0  0  0  0
   16.7999   20.9418    8.8735 H   0  0  0  0  0  0  0  0  0  0  0  0
   15.3383   23.6440    8.7937 H   0  0  0  0  0  0  0  0  0  0  0  0
   16.3103   22.9917   10.0870 H   0  0  0  0  0  0  0  0  0  0  0  0
   17.9601   24.2174    9.2161 H   0  0  0  0  0  0  0  0  0  0  0  0
   18.2086   22.8655    8.1316 H   0  0  0  0  0  0  0  0  0  0  0  0
   16.5900   25.4151    7.5510 H   0  0  0  0  0  0  0  0  0  0  0  0
   18.2347   25.0842    7.0444 H   0  0  0  0  0  0  0  0  0  0  0  0
   17.0400   24.6788    5.1169 H   0  0  0  0  0  0  0  0  0  0  0  0
   17.4287   23.1165    5.6806 H   0  0  0  0  0  0  0  0  0  0  0  0
    7.2522   26.7473    7.4080 H   0  0  0  0  0  0  0  0  0  0  0  0
    5.6005   27.1438    4.6013 H   0  0  0  0  0  0  0  0  0  0  0  0
    5.5518   26.4417    2.2271 H   0  0  0  0  0  0  0  0  0  0  0  0
    7.3866   27.1155    0.6968 H   0  0  0  0  0  0  0  0  0  0  0  0
    9.2696   28.4940    1.5372 H   0  0  0  0  0  0  0  0  0  0  0  0
    9.3461   29.1871    3.9182 H   0  0  0  0  0  0  0  0  0  0  0  0
  1 15  1  0  0  0  0
  1  7  2  0  0  0  0
  1  2  1  0  0  0  0
  2  4  1  0  0  0  0
  2  3  2  0  0  0  0
  4  5  1  0  0  0  0
  5 19  1  0  0  0  0
  5  6  2  0  0  0  0
  6 24  1  0  0  0  0
  6  7  1  0  0  0  0
  7  8  1  0  0  0  0
  9 15  1  0  0  0  0
  9 14  2  0  0  0  0
  9 10  1  0  0  0  0
 10 11  2  0  0  0  0
 10 35  1  0  0  0  0
 11 12  1  0  0  0  0
 11 36  1  0  0  0  0
 12 13  2  0  0  0  0
 12 37  1  0  0  0  0
 13 25  1  0  0  0  0
 13 14  1  0  0  0  0
 14 38  1  0  0  0  0
 15 16  1  0  0  0  0
 15 39  1  6  0  0  0
 16 18  1  0  0  0  0
 16 17  1  0  0  0  0
 16 40  1  0  0  0  0
 17 18  1  0  0  0  0
 17 41  1  0  0  0  0
 17 42  1  0  0  0  0
 18 43  1  0  0  0  0
 18 44  1  0  0  0  0
 19 20  1  0  0  0  0
 19 45  1  0  0  0  0
 19 46  1  0  0  0  0
 20 21  1  0  0  0  0
 20 47  1  0  0  0  0
 20 48  1  0  0  0  0
 21 22  1  0  0  0  0
 21 49  1  0  0  0  0
 21 50  1  0  0  0  0
 22 23  1  0  0  0  0
 22 51  1  0  0  0  0
 22 52  1  0  0  0  0
 23 24  1  0  0  0  0
 23 53  1  0  0  0  0
 23 54  1  0  0  0  0
 24 55  1  0  0  0  0
 24 56  1  0  0  0  0
 25 26  1  0  0  0  0
 25 57  1  0  0  0  0
 26 29  1  0  0  0  0
 26 28  2  0  0  0  0
 26 27  2  0  0  0  0
 29 34  2  0  0  0  0
 29 30  1  0  0  0  0
 30 31  2  0  0  0  0
 30 58  1  0  0  0  0
 31 32  1  0  0  0  0
 31 59  1  0  0  0  0
 32 33  2  0  0  0  0
 32 60  1  0  0  0  0
 33 34  1  0  0  0  0
 33 61  1  0  0  0  0
 34 62  1  0  0  0  0
M  CHG  1   4   1
M  END
$$$$
