JAY
 OpenBabel04161912193D

 78 84  0  0  1  0  0  0  0  0999 V2000
   19.4481  -17.5008   16.3504 F   0  0  0  0  0  0  0  0  0  0  0  0
   19.9966  -16.5575   15.5722 C   0  0  0  0  0  0  0  0  0  0  0  0
   20.7306  -15.5387   16.1669 C   0  0  0  0  0  0  0  0  0  0  0  0
   21.2863  -14.5332   15.3762 C   0  0  0  0  0  0  0  0  0  0  0  0
   21.0991  -14.5490   13.9977 C   0  0  0  0  0  0  0  0  0  0  0  0
   20.3550  -15.5693   13.4109 C   0  0  0  0  0  0  0  0  0  0  0  0
   19.7884  -16.5948   14.1911 C   0  0  0  0  0  0  0  0  0  0  0  0
   18.9250  -17.6955   13.6103 C   0  0  2  0  0  0  0  0  0  0  0  0
   19.6192  -18.9473   13.4113 N   0  0  0  0  0  0  0  0  0  0  0  0
   20.5060  -18.9735   12.3371 C   0  0  0  0  0  0  0  0  0  0  0  0
   21.6556  -19.7643   12.3616 C   0  0  0  0  0  0  0  0  0  0  0  0
   22.4975  -19.8244   11.2410 C   0  0  0  0  0  0  0  0  0  0  0  0
   22.2016  -19.0849   10.0966 C   0  0  0  0  0  0  0  0  0  0  0  0
   21.0523  -18.2994   10.0606 C   0  0  0  0  0  0  0  0  0  0  0  0
   20.2083  -18.2567   11.1714 C   0  0  0  0  0  0  0  0  0  0  0  0
   18.9410  -17.4852   11.1490 C   0  0  0  0  0  0  0  0  0  0  0  0
   18.5148  -17.0191   10.0860 O   0  0  0  0  0  0  0  0  0  0  0  0
   18.2753  -17.3132   12.3644 N   0  0  0  0  0  0  0  0  0  0  0  0
   16.9651  -16.6584   12.3851 C   0  0  1  0  0  0  0  0  0  0  0  0
   15.9081  -17.6217   12.9139 C   0  0  0  0  0  0  0  0  0  0  0  0
   14.5355  -17.0360   12.6977 C   0  0  0  0  0  0  0  0  0  0  0  0
   16.8955  -15.3449   13.1712 C   0  0  0  0  0  0  0  0  0  0  0  0
   15.5177  -14.7093   13.0686 C   0  0  0  0  0  0  0  0  0  0  0  0
   14.4046  -15.6993   13.3886 N   0  3  2  0  0  0  0  0  0  0  0  0
   14.1142  -15.7845   14.8949 C   0  0  0  0  0  0  0  0  0  0  0  0
   13.1240  -14.6764   15.2947 C   0  0  0  0  0  0  0  0  0  0  0  0
   11.8114  -15.2461   15.5913 N   0  0  0  0  0  0  0  0  0  0  0  0
   11.4835  -15.4953   16.9165 C   0  0  0  0  0  0  0  0  0  0  0  0
   12.2656  -15.2548   17.8329 O   0  0  0  0  0  0  0  0  0  0  0  0
   10.1610  -16.0958   17.1923 C   0  0  0  0  0  0  0  0  0  0  0  0
    9.7466  -16.3306   18.5086 C   0  0  0  0  0  0  0  0  0  0  0  0
    8.5274  -16.9641   18.7487 C   0  0  0  0  0  0  0  0  0  0  0  0
    7.7244  -17.3457   17.6756 C   0  0  0  0  0  0  0  0  0  0  0  0
    8.1474  -17.1116   16.3634 C   0  0  0  0  0  0  0  0  0  0  0  0
    9.3711  -16.4773   16.1069 C   0  0  0  0  0  0  0  0  0  0  0  0
    9.8500  -16.3692   14.8076 N   0  0  0  0  0  0  0  0  0  0  0  0
   10.8607  -15.3873   14.5117 C   0  0  1  0  0  0  0  0  0  0  0  0
   10.3030  -14.0585   14.0700 C   0  0  0  0  0  0  0  0  0  0  0  0
   10.2365  -13.7629   12.7050 C   0  0  0  0  0  0  0  0  0  0  0  0
   10.6659  -14.6678   11.8122 F   0  0  0  0  0  0  0  0  0  0  0  0
    9.7916  -12.5285   12.2502 C   0  0  0  0  0  0  0  0  0  0  0  0
    9.4091  -11.5552   13.1690 C   0  0  0  0  0  0  0  0  0  0  0  0
    9.4739  -11.8213   14.5354 C   0  0  0  0  0  0  0  0  0  0  0  0
    9.9151  -13.0655   14.9842 C   0  0  0  0  0  0  0  0  0  0  0  0
   20.8721  -15.5288   17.2469 H   0  0  0  0  0  0  0  0  0  0  0  0
   21.8691  -13.7367   15.8312 H   0  0  0  0  0  0  0  0  0  0  0  0
   21.5354  -13.7729   13.3716 H   0  0  0  0  0  0  0  0  0  0  0  0
   20.2145  -15.5350   12.3336 H   0  0  0  0  0  0  0  0  0  0  0  0
   18.1342  -17.9087   14.3354 H   0  0  0  0  0  0  0  0  0  0  0  0
   19.9133  -19.4310   14.2529 H   0  0  0  0  0  0  0  0  0  0  0  0
   21.9174  -20.3350   13.2510 H   0  0  0  0  0  0  0  0  0  0  0  0
   23.3947  -20.4368   11.2794 H   0  0  0  0  0  0  0  0  0  0  0  0
   22.8622  -19.1290    9.2378 H   0  0  0  0  0  0  0  0  0  0  0  0
   20.8072  -17.7409    9.1620 H   0  0  0  0  0  0  0  0  0  0  0  0
   16.7025  -16.4126   11.3481 H   0  0  0  0  0  0  0  0  0  0  0  0
   16.0606  -17.8183   13.9810 H   0  0  0  0  0  0  0  0  0  0  0  0
   15.9927  -18.5849   12.3980 H   0  0  0  0  0  0  0  0  0  0  0  0
   13.7540  -17.6992   13.0787 H   0  0  0  0  0  0  0  0  0  0  0  0
   14.3483  -16.8546   11.6340 H   0  0  0  0  0  0  0  0  0  0  0  0
   17.6297  -14.6287   12.7931 H   0  0  0  0  0  0  0  0  0  0  0  0
   17.1365  -15.5168   14.2277 H   0  0  0  0  0  0  0  0  0  0  0  0
   15.3090  -14.3418   12.0601 H   0  0  0  0  0  0  0  0  0  0  0  0
   15.4127  -13.8701   13.7631 H   0  0  0  0  0  0  0  0  0  0  0  0
   15.0697  -15.6869   15.4193 H   0  0  0  0  0  0  0  0  0  0  0  0
   13.6998  -16.7777   15.0969 H   0  0  0  0  0  0  0  0  0  0  0  0
   13.0187  -13.9040   14.5211 H   0  0  0  0  0  0  0  0  0  0  0  0
   13.5135  -14.1580   16.1762 H   0  0  0  0  0  0  0  0  0  0  0  0
   10.3795  -16.0466   19.3484 H   0  0  0  0  0  0  0  0  0  0  0  0
    8.2092  -17.1741   19.7678 H   0  0  0  0  0  0  0  0  0  0  0  0
    6.7724  -17.8412   17.8588 H   0  0  0  0  0  0  0  0  0  0  0  0
    7.5066  -17.4287   15.5448 H   0  0  0  0  0  0  0  0  0  0  0  0
    9.1773  -16.5555   14.0710 H   0  0  0  0  0  0  0  0  0  0  0  0
   11.4329  -15.8183   13.6807 H   0  0  0  0  0  0  0  0  0  0  0  0
    9.7505  -12.3222   11.1835 H   0  0  0  0  0  0  0  0  0  0  0  0
    9.0600  -10.5850   12.8235 H   0  0  0  0  0  0  0  0  0  0  0  0
    9.1830  -11.0584   15.2554 H   0  0  0  0  0  0  0  0  0  0  0  0
    9.9760  -13.2383   16.0571 H   0  0  0  0  0  0  0  0  0  0  0  0
   13.5531  -15.2991   12.9653 H   0  0  0  0  0  0  0  0  0  0  0  0
  1  2  1  0  0  0  0
  2  3  2  0  0  0  0
  2  7  1  0  0  0  0
  3  4  1  0  0  0  0
  3 45  1  0  0  0  0
  4  5  2  0  0  0  0
  4 46  1  0  0  0  0
  5  6  1  0  0  0  0
  5 47  1  0  0  0  0
  6  7  2  0  0  0  0
  6 48  1  0  0  0  0
  7  8  1  0  0  0  0
  8  9  1  0  0  0  0
  8 18  1  0  0  0  0
  8 49  1  1  0  0  0
  9 10  1  0  0  0  0
  9 50  1  0  0  0  0
 10 11  2  0  0  0  0
 10 15  1  0  0  0  0
 11 12  1  0  0  0  0
 11 51  1  0  0  0  0
 12 13  2  0  0  0  0
 12 52  1  0  0  0  0
 13 14  1  0  0  0  0
 13 53  1  0  0  0  0
 14 15  2  0  0  0  0
 14 54  1  0  0  0  0
 15 16  1  0  0  0  0
 16 17  2  0  0  0  0
 16 18  1  0  0  0  0
 18 19  1  0  0  0  0
 19 20  1  0  0  0  0
 19 22  1  0  0  0  0
 19 55  1  6  0  0  0
 20 21  1  0  0  0  0
 20 56  1  0  0  0  0
 20 57  1  0  0  0  0
 21 24  1  0  0  0  0
 21 58  1  0  0  0  0
 21 59  1  0  0  0  0
 22 23  1  0  0  0  0
 22 60  1  0  0  0  0
 22 61  1  0  0  0  0
 23 24  1  0  0  0  0
 23 62  1  0  0  0  0
 23 63  1  0  0  0  0
 24 25  1  0  0  0  0
 24 78  1  6  0  0  0
 25 26  1  0  0  0  0
 25 64  1  0  0  0  0
 25 65  1  0  0  0  0
 26 27  1  0  0  0  0
 26 66  1  0  0  0  0
 26 67  1  0  0  0  0
 27 28  1  0  0  0  0
 27 37  1  0  0  0  0
 28 29  2  0  0  0  0
 28 30  1  0  0  0  0
 30 31  2  0  0  0  0
 30 35  1  0  0  0  0
 31 32  1  0  0  0  0
 31 68  1  0  0  0  0
 32 33  2  0  0  0  0
 32 69  1  0  0  0  0
 33 34  1  0  0  0  0
 33 70  1  0  0  0  0
 34 35  2  0  0  0  0
 34 71  1  0  0  0  0
 35 36  1  0  0  0  0
 36 37  1  0  0  0  0
 36 72  1  0  0  0  0
 37 38  1  0  0  0  0
 37 73  1  6  0  0  0
 38 39  2  0  0  0  0
 38 44  1  0  0  0  0
 39 40  1  0  0  0  0
 39 41  1  0  0  0  0
 41 42  2  0  0  0  0
 41 74  1  0  0  0  0
 42 43  1  0  0  0  0
 42 75  1  0  0  0  0
 43 44  2  0  0  0  0
 43 76  1  0  0  0  0
 44 77  1  0  0  0  0
M  CHG  1  24   1
M  END
$$$$
