JH5
 OpenBabel04161909353D

 37 39  0  0  0  0  0  0  0  0999 V2000
   10.5154  -16.6035   -4.9365 C   0  0  0  0  0  0  0  0  0  0  0  0
   10.4305  -12.1336   -6.7768 C   0  0  0  0  0  0  0  0  0  0  0  0
    9.5775  -11.5559   -5.8106 C   0  0  0  0  0  0  0  0  0  0  0  0
    9.9002  -12.7004   -7.9366 C   0  0  0  0  0  0  0  0  0  0  0  0
    8.5340  -12.6098   -8.1891 C   0  0  0  0  0  0  0  0  0  0  0  0
    7.6924  -11.9790   -7.2733 C   0  0  0  0  0  0  0  0  0  0  0  0
    8.2048  -11.4726   -6.0800 C   0  0  0  0  0  0  0  0  0  0  0  0
   12.6097  -15.1681   -5.5348 C   0  0  0  0  0  0  0  0  0  0  0  0
   13.5745  -14.7601   -6.4794 C   0  0  0  0  0  0  0  0  0  0  0  0
   13.6063  -15.3407   -7.7473 C   0  0  0  0  0  0  0  0  0  0  0  0
   12.6708  -16.3003   -8.0814 C   0  0  0  0  0  0  0  0  0  0  0  0
   11.6825  -16.6809   -7.1586 C   0  0  0  0  0  0  0  0  0  0  0  0
   11.6364  -16.1256   -5.8570 C   0  0  0  0  0  0  0  0  0  0  0  0
    9.6632  -14.0606   -2.2264 C   0  0  0  0  0  0  0  0  0  0  0  0
   10.0426  -14.7390   -3.3590 N   0  3  0  0  0  0  0  0  0  0  0  0
   10.0757  -13.8266   -4.3168 C   0  0  0  0  0  0  0  0  0  0  0  0
    9.9313  -12.6339   -3.7341 N   0  3  0  0  0  0  0  0  0  0  0  0
    9.6000  -12.7803   -2.3997 N   0  0  0  0  0  0  0  0  0  0  0  0
   10.0690  -11.3304   -4.3919 C   0  0  0  0  0  0  0  0  0  0  0  0
   10.4795  -16.1049   -3.5477 N   0  0  0  0  0  0  0  0  0  0  0  0
   10.6023  -17.6954   -4.8831 H   0  0  0  0  0  0  0  0  0  0  0  0
    9.5523  -16.3854   -5.4196 H   0  0  0  0  0  0  0  0  0  0  0  0
   11.4929  -12.2751   -6.5756 H   0  0  0  0  0  0  0  0  0  0  0  0
   10.5445  -13.2439   -8.6268 H   0  0  0  0  0  0  0  0  0  0  0  0
    8.1203  -13.0362   -9.1008 H   0  0  0  0  0  0  0  0  0  0  0  0
    6.6256  -11.9116   -7.4772 H   0  0  0  0  0  0  0  0  0  0  0  0
    7.5174  -11.0658   -5.3395 H   0  0  0  0  0  0  0  0  0  0  0  0
   12.6482  -14.7034   -4.5550 H   0  0  0  0  0  0  0  0  0  0  0  0
   14.3149  -14.0086   -6.2202 H   0  0  0  0  0  0  0  0  0  0  0  0
   14.3765  -15.0535   -8.4597 H   0  0  0  0  0  0  0  0  0  0  0  0
   12.7058  -16.7788   -9.0631 H   0  0  0  0  0  0  0  0  0  0  0  0
   10.9643  -17.4400   -7.4614 H   0  0  0  0  0  0  0  0  0  0  0  0
    9.4608  -14.6044   -1.3073 H   0  0  0  0  0  0  0  0  0  0  0  0
   10.2389  -14.0121   -5.3537 H   0  0  0  0  0  0  0  0  0  0  0  0
    9.4906  -10.5621   -3.8731 H   0  0  0  0  0  0  0  0  0  0  0  0
   11.1247  -11.0506   -4.3840 H   0  0  0  0  0  0  0  0  0  0  0  0
   10.0135  -16.7576   -2.9054 H   0  0  0  0  0  0  0  0  0  0  0  0
  1 13  1  0  0  0  0
  1 20  1  0  0  0  0
  1 21  1  0  0  0  0
  1 22  1  0  0  0  0
  2  3  2  0  0  0  0
  2  4  1  0  0  0  0
  2 23  1  0  0  0  0
  3  7  1  0  0  0  0
  3 19  1  0  0  0  0
  4  5  2  0  0  0  0
  4 24  1  0  0  0  0
  5  6  1  0  0  0  0
  5 25  1  0  0  0  0
  6  7  2  0  0  0  0
  6 26  1  0  0  0  0
  7 27  1  0  0  0  0
  8  9  2  0  0  0  0
  8 13  1  0  0  0  0
  8 28  1  0  0  0  0
  9 10  1  0  0  0  0
  9 29  1  0  0  0  0
 10 11  2  0  0  0  0
 10 30  1  0  0  0  0
 11 12  1  0  0  0  0
 11 31  1  0  0  0  0
 12 13  2  0  0  0  0
 12 32  1  0  0  0  0
 14 15  2  0  0  0  0
 14 18  1  0  0  0  0
 14 33  1  0  0  0  0
 15 16  1  0  0  0  0
 15 20  1  0  0  0  0
 16 17  2  0  0  0  0
 16 34  1  0  0  0  0
 17 18  1  0  0  0  0
 17 19  1  0  0  0  0
 19 35  1  0  0  0  0
 19 36  1  0  0  0  0
 20 37  1  0  0  0  0
M  CHG  2  15   1  17   1
M  END
$$$$
