JRJ
 OpenBabel04161909463D

 41 43  0  0  0  0  0  0  0  0999 V2000
    4.7374   -9.1574   -7.6873 N   0  3  0  0  0  0  0  0  0  0  0  0
    4.0763   -8.0872   -8.4748 C   0  0  0  0  0  0  0  0  0  0  0  0
    5.0294   -7.5865   -9.5530 C   0  0  0  0  0  0  0  0  0  0  0  0
    4.7323   -6.1579  -10.0297 C   0  0  0  0  0  0  0  0  0  0  0  0
    5.0679   -5.0726   -8.9955 C   0  0  0  0  0  0  0  0  0  0  0  0
    4.9199   -3.7195   -9.4921 N   0  3  0  0  0  0  0  0  0  0  0  0
    5.3804   -3.1947  -10.6556 C   0  0  0  0  0  0  0  0  0  0  0  0
    4.9910   -1.8705  -10.6143 C   0  0  0  0  0  0  0  0  0  0  0  0
    5.2147   -0.7773  -11.6034 C   0  0  0  0  0  0  0  0  0  0  0  0
    4.2375   -0.7618  -12.7815 C   0  0  0  0  0  0  0  0  0  0  0  0
    4.5847   -1.6592  -13.8737 N   0  0  0  0  0  0  0  0  0  0  0  0
    4.6681   -1.2122  -15.1356 N   0  0  0  0  0  0  0  0  0  0  0  0
    4.9282   -2.3280  -15.8489 C   0  0  0  0  0  0  0  0  0  0  0  0
    5.1284   -2.5135  -17.2353 C   0  0  0  0  0  0  0  0  0  0  0  0
    5.0127   -1.0295  -18.4065 Br  0  0  0  0  0  0  0  0  0  0  0  0
    5.4074   -3.8474  -17.6421 C   0  0  0  0  0  0  0  0  0  0  0  0
    5.6964   -4.1813  -19.5181 Br  0  0  0  0  0  0  0  0  0  0  0  0
    5.4819   -4.9416  -16.7095 C   0  0  0  0  0  0  0  0  0  0  0  0
    5.8801   -6.7187  -17.3384 Br  0  0  0  0  0  0  0  0  0  0  0  0
    5.2712   -4.7687  -15.3192 C   0  0  0  0  0  0  0  0  0  0  0  0
    5.3466   -6.1554  -14.0277 Br  0  0  0  0  0  0  0  0  0  0  0  0
    4.9891   -3.4483  -14.9071 C   0  0  0  0  0  0  0  0  0  0  0  0
    4.7307   -2.9767  -13.6726 N   0  0  0  0  0  0  0  0  0  0  0  0
    4.3648   -1.6418   -9.4154 N   0  0  0  0  0  0  0  0  0  0  0  0
    4.3359   -2.7810   -8.7325 N   0  0  0  0  0  0  0  0  0  0  0  0
    4.1102   -9.5156   -6.9539 H   0  0  0  0  0  0  0  0  0  0  0  0
    5.0102   -9.9606   -8.2708 H   0  0  0  0  0  0  0  0  0  0  0  0
    3.7899   -7.3146   -7.7580 H   0  0  0  0  0  0  0  0  0  0  0  0
    3.1744   -8.5287   -8.9124 H   0  0  0  0  0  0  0  0  0  0  0  0
    4.9490   -8.2580  -10.4175 H   0  0  0  0  0  0  0  0  0  0  0  0
    6.0734   -7.6425   -9.2201 H   0  0  0  0  0  0  0  0  0  0  0  0
    3.6839   -6.0724  -10.3398 H   0  0  0  0  0  0  0  0  0  0  0  0
    5.3382   -5.9883  -10.9252 H   0  0  0  0  0  0  0  0  0  0  0  0
    6.1044   -5.1670   -8.6540 H   0  0  0  0  0  0  0  0  0  0  0  0
    4.4155   -5.1726   -8.1211 H   0  0  0  0  0  0  0  0  0  0  0  0
    5.9043   -3.7669  -11.4041 H   0  0  0  0  0  0  0  0  0  0  0  0
    6.2502   -0.8179  -11.9626 H   0  0  0  0  0  0  0  0  0  0  0  0
    5.1116    0.1752  -11.0660 H   0  0  0  0  0  0  0  0  0  0  0  0
    4.2262    0.2497  -13.2087 H   0  0  0  0  0  0  0  0  0  0  0  0
    3.2137   -1.0066  -12.4772 H   0  0  0  0  0  0  0  0  0  0  0  0
    5.5852   -8.8171   -7.2124 H   0  0  0  0  0  0  0  0  0  0  0  0
  1  2  1  0  0  0  0
  1 26  1  0  0  0  0
  1 27  1  0  0  0  0
  1 41  1  0  0  0  0
  2  3  1  0  0  0  0
  2 28  1  0  0  0  0
  2 29  1  0  0  0  0
  3  4  1  0  0  0  0
  3 30  1  0  0  0  0
  3 31  1  0  0  0  0
  4  5  1  0  0  0  0
  4 32  1  0  0  0  0
  4 33  1  0  0  0  0
  5  6  1  0  0  0  0
  5 34  1  0  0  0  0
  5 35  1  0  0  0  0
  6  7  1  0  0  0  0
  6 25  2  0  0  0  0
  7  8  2  0  0  0  0
  7 36  1  0  0  0  0
  8  9  1  0  0  0  0
  8 24  1  0  0  0  0
  9 10  1  0  0  0  0
  9 37  1  0  0  0  0
  9 38  1  0  0  0  0
 10 11  1  0  0  0  0
 10 39  1  0  0  0  0
 10 40  1  0  0  0  0
 11 12  1  0  0  0  0
 11 23  1  0  0  0  0
 12 13  2  0  0  0  0
 13 14  1  0  0  0  0
 13 22  1  0  0  0  0
 14 15  1  0  0  0  0
 14 16  2  0  0  0  0
 16 17  1  0  0  0  0
 16 18  1  0  0  0  0
 18 19  1  0  0  0  0
 18 20  2  0  0  0  0
 20 21  1  0  0  0  0
 20 22  1  0  0  0  0
 22 23  2  0  0  0  0
 24 25  1  0  0  0  0
M  CHG  2   1   1   6   1
M  END
$$$$
