K82
 OpenBabel04161909473D

 28 28  0  0  0  0  0  0  0  0999 V2000
   34.8789  152.3583  337.8262 Cl  0  0  0  0  0  0  0  0  0  0  0  0
   33.6750  153.5721  337.5869 C   0  0  0  0  0  0  0  0  0  0  0  0
   33.7729  154.7390  338.3484 C   0  0  0  0  0  0  0  0  0  0  0  0
   32.8271  155.7655  338.2022 C   0  0  0  0  0  0  0  0  0  0  0  0
   32.9715  157.0338  338.9823 C   0  0  0  0  0  0  0  0  0  0  0  0
   34.0134  157.8868  338.3744 N   0  3  0  0  0  0  0  0  0  0  0  0
   31.7962  155.6104  337.2754 C   0  0  0  0  0  0  0  0  0  0  0  0
   31.7017  154.4441  336.5103 C   0  0  0  0  0  0  0  0  0  0  0  0
   32.6427  153.4185  336.6548 C   0  0  0  0  0  0  0  0  0  0  0  0
   32.6136  152.2361  335.9666 O   0  0  0  0  0  0  0  0  0  0  0  0
   31.7709  152.1367  334.8204 C   0  0  0  0  0  0  0  0  0  0  0  0
   31.4457  150.6670  334.5940 C   0  0  0  0  0  0  0  0  0  0  0  0
   30.1774  150.5204  333.7692 C   0  0  0  0  0  0  0  0  0  0  0  0
   34.5918  154.8311  339.0575 H   0  0  0  0  0  0  0  0  0  0  0  0
   33.2669  156.8337  340.0156 H   0  0  0  0  0  0  0  0  0  0  0  0
   32.0427  157.6157  338.9896 H   0  0  0  0  0  0  0  0  0  0  0  0
   34.1390  158.7631  338.8885 H   0  0  0  0  0  0  0  0  0  0  0  0
   34.9175  157.3942  338.3513 H   0  0  0  0  0  0  0  0  0  0  0  0
   31.0359  156.3810  337.1324 H   0  0  0  0  0  0  0  0  0  0  0  0
   30.8634  154.3804  335.8278 H   0  0  0  0  0  0  0  0  0  0  0  0
   32.2998  152.5542  333.9567 H   0  0  0  0  0  0  0  0  0  0  0  0
   30.8257  152.6639  334.9493 H   0  0  0  0  0  0  0  0  0  0  0  0
   31.3179  150.1570  335.5560 H   0  0  0  0  0  0  0  0  0  0  0  0
   32.2856  150.1772  334.0891 H   0  0  0  0  0  0  0  0  0  0  0  0
   29.9438  149.4681  333.6118 H   0  0  0  0  0  0  0  0  0  0  0  0
   30.2822  151.0117  332.7978 H   0  0  0  0  0  0  0  0  0  0  0  0
   29.3271  150.9810  334.2913 H   0  0  0  0  0  0  0  0  0  0  0  0
   33.7729  158.1124  337.4010 H   0  0  0  0  0  0  0  0  0  0  0  0
  1  2  1  0  0  0  0
  2  3  2  0  0  0  0
  2  9  1  0  0  0  0
  3  4  1  0  0  0  0
  3 14  1  0  0  0  0
  4  5  1  0  0  0  0
  4  7  2  0  0  0  0
  5  6  1  0  0  0  0
  5 15  1  0  0  0  0
  5 16  1  0  0  0  0
  6 17  1  0  0  0  0
  6 18  1  0  0  0  0
  6 28  1  0  0  0  0
  7  8  1  0  0  0  0
  7 19  1  0  0  0  0
  8  9  2  0  0  0  0
  8 20  1  0  0  0  0
  9 10  1  0  0  0  0
 10 11  1  0  0  0  0
 11 12  1  0  0  0  0
 11 21  1  0  0  0  0
 11 22  1  0  0  0  0
 12 13  1  0  0  0  0
 12 23  1  0  0  0  0
 12 24  1  0  0  0  0
 13 25  1  0  0  0  0
 13 26  1  0  0  0  0
 13 27  1  0  0  0  0
M  CHG  1   6   1
M  END
$$$$
