KGM
 OpenBabel04161910203D

 45 45  0  0  1  0  0  0  0  0999 V2000
   -7.3566    6.5673    1.9343 O   0  0  0  0  0  0  0  0  0  0  0  0
   -6.7393    5.2909    1.7978 C   0  0  0  0  0  0  0  0  0  0  0  0
   -6.6783    4.8875    0.3218 C   0  0  1  0  0  0  0  0  0  0  0  0
   -6.9472   -1.5427   -0.4143 C   0  0  0  0  0  0  0  0  0  0  0  0
   -8.0231    4.7333   -0.1467 O   0  0  0  0  0  0  0  0  0  0  0  0
   -5.9043    5.9251   -0.5032 C   0  0  1  0  0  0  0  0  0  0  0  0
   -4.5323    5.9748   -0.0719 O   0  0  0  0  0  0  0  0  0  0  0  0
   -5.9478    5.5340   -1.9828 C   0  0  2  0  0  0  0  0  0  0  0  0
   -5.3438    6.5733   -2.7715 O   0  0  0  0  0  0  0  0  0  0  0  0
   -7.3939    5.3361   -2.4406 C   0  0  2  0  0  0  0  0  0  0  0  0
   -8.1078    6.5832   -2.4433 O   0  0  0  0  0  0  0  0  0  0  0  0
   -8.1018    4.3326   -1.5139 C   0  0  1  0  0  0  0  0  0  0  0  0
   -7.5170    3.0506   -1.6908 O   0  0  0  0  0  0  0  0  0  0  0  0
   -8.1803    2.0594   -0.9116 C   0  0  0  0  0  0  0  0  0  0  0  0
   -7.3408    0.8133   -1.0549 C   0  0  0  0  0  0  0  0  0  0  0  0
   -7.8750   -0.3499   -0.2418 C   0  0  0  0  0  0  0  0  0  0  0  0
   -6.6638   -5.0038    1.2306 C   0  0  0  0  0  0  0  0  0  0  0  0
   -6.3605   -3.8511    0.2957 C   0  0  0  0  0  0  0  0  0  0  0  0
   -7.3685   -2.7171    0.4558 C   0  0  0  0  0  0  0  0  0  0  0  0
   -7.4648    6.7421    2.8959 H   0  0  0  0  0  0  0  0  0  0  0  0
   -7.3155    4.5544    2.3677 H   0  0  0  0  0  0  0  0  0  0  0  0
   -5.7366    5.3607    2.2283 H   0  0  0  0  0  0  0  0  0  0  0  0
   -6.1594    3.9211    0.2706 H   0  0  0  0  0  0  0  0  0  0  0  0
   -5.9247   -1.2479   -0.1572 H   0  0  0  0  0  0  0  0  0  0  0  0
   -6.9341   -1.8479   -1.4676 H   0  0  0  0  0  0  0  0  0  0  0  0
   -6.3368    6.9245   -0.3888 H   0  0  0  0  0  0  0  0  0  0  0  0
   -4.5237    6.3913    0.8074 H   0  0  0  0  0  0  0  0  0  0  0  0
   -5.3590    4.6172   -2.1309 H   0  0  0  0  0  0  0  0  0  0  0  0
   -5.2726    6.2394   -3.6813 H   0  0  0  0  0  0  0  0  0  0  0  0
   -7.3934    4.9803   -3.4789 H   0  0  0  0  0  0  0  0  0  0  0  0
   -7.5184    7.2392   -2.8597 H   0  0  0  0  0  0  0  0  0  0  0  0
   -9.1601    4.2907   -1.7972 H   0  0  0  0  0  0  0  0  0  0  0  0
   -9.1902    1.9038   -1.3033 H   0  0  0  0  0  0  0  0  0  0  0  0
   -8.2480    2.3512    0.1451 H   0  0  0  0  0  0  0  0  0  0  0  0
   -6.3080    1.0418   -0.7535 H   0  0  0  0  0  0  0  0  0  0  0  0
   -7.2811    0.5385   -2.1186 H   0  0  0  0  0  0  0  0  0  0  0  0
   -7.9423   -0.0635    0.8135 H   0  0  0  0  0  0  0  0  0  0  0  0
   -8.8897   -0.6077   -0.5690 H   0  0  0  0  0  0  0  0  0  0  0  0
   -5.9246   -5.7985    1.0954 H   0  0  0  0  0  0  0  0  0  0  0  0
   -7.6566   -5.4167    1.0294 H   0  0  0  0  0  0  0  0  0  0  0  0
   -6.6266   -4.6755    2.2742 H   0  0  0  0  0  0  0  0  0  0  0  0
   -6.3704   -4.2078   -0.7406 H   0  0  0  0  0  0  0  0  0  0  0  0
   -5.3499   -3.4802    0.5022 H   0  0  0  0  0  0  0  0  0  0  0  0
   -8.3704   -3.0566    0.1666 H   0  0  0  0  0  0  0  0  0  0  0  0
   -7.4202   -2.4031    1.5056 H   0  0  0  0  0  0  0  0  0  0  0  0
  1  2  1  0  0  0  0
  1 20  1  0  0  0  0
  2  3  1  0  0  0  0
  2 21  1  0  0  0  0
  2 22  1  0  0  0  0
  3  5  1  0  0  0  0
  3  6  1  0  0  0  0
  3 23  1  6  0  0  0
  4 16  1  0  0  0  0
  4 19  1  0  0  0  0
  4 24  1  0  0  0  0
  4 25  1  0  0  0  0
  5 12  1  0  0  0  0
  6  7  1  0  0  0  0
  6  8  1  0  0  0  0
  6 26  1  1  0  0  0
  7 27  1  0  0  0  0
  8  9  1  0  0  0  0
  8 10  1  0  0  0  0
  8 28  1  6  0  0  0
  9 29  1  0  0  0  0
 10 11  1  0  0  0  0
 10 12  1  0  0  0  0
 10 30  1  6  0  0  0
 11 31  1  0  0  0  0
 12 13  1  0  0  0  0
 12 32  1  6  0  0  0
 13 14  1  0  0  0  0
 14 15  1  0  0  0  0
 14 33  1  0  0  0  0
 14 34  1  0  0  0  0
 15 16  1  0  0  0  0
 15 35  1  0  0  0  0
 15 36  1  0  0  0  0
 16 37  1  0  0  0  0
 16 38  1  0  0  0  0
 17 18  1  0  0  0  0
 17 39  1  0  0  0  0
 17 40  1  0  0  0  0
 17 41  1  0  0  0  0
 18 19  1  0  0  0  0
 18 42  1  0  0  0  0
 18 43  1  0  0  0  0
 19 44  1  0  0  0  0
 19 45  1  0  0  0  0
M  END
$$$$
