KTS
 OpenBabel04161911043D

 96 99  0  0  1  0  0  0  0  0999 V2000
   -5.8204    9.4902    7.5577 O   0  0  0  0  0  0  0  0  0  0  0  0
   -6.1098    9.3520    6.1546 C   0  0  1  0  0  0  0  0  0  0  0  0
   -7.6138    9.2552    5.9337 C   0  0  1  0  0  0  0  0  0  0  0  0
   -8.2121   10.4704    6.4114 O   0  0  0  0  0  0  0  0  0  0  0  0
   -9.5551   10.2864    6.8307 C   0  0  2  0  0  0  0  0  0  0  0  0
  -10.5078    9.9631    5.6983 C   0  0  1  0  0  0  0  0  0  0  0  0
  -10.6201    8.5489    5.5007 O   0  0  0  0  0  0  0  0  0  0  0  0
  -11.8427   10.5406    6.1627 C   0  0  2  0  0  0  0  0  0  0  0  0
  -12.5315   11.2313    5.1124 O   0  0  0  0  0  0  0  0  0  0  0  0
  -11.5565   11.3871    7.3053 O   0  0  0  0  0  0  0  0  0  0  0  0
  -10.1275   11.5871    7.3704 C   0  0  1  0  0  0  0  0  0  0  0  0
   -9.5467   11.8855    8.7767 C   0  0  2  0  0  0  0  0  0  0  0  0
   -9.9016   10.8465    9.7004 O   0  0  0  0  0  0  0  0  0  0  0  0
   -9.9399   13.2511    9.3504 C   0  0  0  0  0  0  0  0  0  0  0  0
  -11.3511   13.3850    9.4334 O   0  0  0  0  0  0  0  0  0  0  0  0
   -5.5730   10.5622    5.3891 C   0  0  2  0  0  0  0  0  0  0  0  0
   -5.9647   10.4302    3.9046 C   0  0  1  0  0  0  0  0  0  0  0  0
   -5.2457    9.3277    3.3403 O   0  0  0  0  0  0  0  0  0  0  0  0
   -7.4736   10.1774    3.7568 C   0  0  1  0  0  0  0  0  0  0  0  0
   -7.8453    9.9088    2.2965 C   0  0  0  0  0  0  0  0  0  0  0  0
   -7.5444   11.0396    1.4799 O   0  0  0  0  0  0  0  0  0  0  0  0
   -7.8938    9.0627    4.5526 O   0  0  0  0  0  0  0  0  0  0  0  0
   -4.1404   10.5730    5.5714 O   0  0  0  0  0  0  0  0  0  0  0  0
   -3.5985   11.8816    5.4666 C   0  0  1  0  0  0  0  0  0  0  0  0
   -2.1445   11.8632    5.9468 C   0  0  2  0  0  0  0  0  0  0  0  0
   -2.0039   12.1157    7.3436 O   0  0  0  0  0  0  0  0  0  0  0  0
   -1.5874   13.0001    5.1182 C   0  0  2  0  0  0  0  0  0  0  0  0
   -2.2356   12.7013    3.7792 C   0  0  2  0  0  0  0  0  0  0  0  0
   -2.2178   13.8769    2.7933 C   0  0  1  0  0  0  0  0  0  0  0  0
   -2.9641   13.4927    1.5121 C   0  0  0  0  0  0  0  0  0  0  0  0
   -2.2745   12.4449    0.8367 O   0  0  0  0  0  0  0  0  0  0  0  0
   -2.8395   15.0398    3.3533 O   0  0  0  0  0  0  0  0  0  0  0  0
   -3.5879   12.3225    4.1082 O   0  0  0  0  0  0  0  0  0  0  0  0
   -0.1709   12.9810    5.0293 O   0  0  0  0  0  0  0  0  0  0  0  0
    0.3641   14.2854    5.3082 C   0  0  2  0  0  0  0  0  0  0  0  0
    1.8455   14.2949    4.9148 C   0  0  2  0  0  0  0  0  0  0  0  0
    1.9804   13.8659    3.5523 O   0  0  0  0  0  0  0  0  0  0  0  0
    2.6104   13.3544    5.8472 C   0  0  1  0  0  0  0  0  0  0  0  0
    4.0163   13.4097    5.5794 O   0  0  0  0  0  0  0  0  0  0  0  0
    2.3658   13.7904    7.2876 C   0  0  1  0  0  0  0  0  0  0  0  0
    2.8801   15.1168    7.5055 O   0  0  0  0  0  0  0  0  0  0  0  0
    0.8640   13.7702    7.5782 C   0  0  2  0  0  0  0  0  0  0  0  0
    0.1532   14.6263    6.6689 O   0  0  0  0  0  0  0  0  0  0  0  0
    0.6102   14.2425    9.0105 C   0  0  0  0  0  0  0  0  0  0  0  0
    0.8815   15.6330    9.1844 O   0  0  0  0  0  0  0  0  0  0  0  0
  -12.7426   10.4410    3.9262 C   0  0  0  0  0  0  0  0  0  0  0  0
  -13.8905   10.9880    3.0727 C   0  0  0  0  0  0  0  0  0  0  0  0
  -13.9382   12.5023    3.0828 C   0  0  0  0  0  0  0  0  0  0  0  0
   -4.8575    9.5317    7.6151 H   0  0  0  0  0  0  0  0  0  0  0  0
   -5.6060    8.4417    5.8008 H   0  0  0  0  0  0  0  0  0  0  0  0
   -7.9925    8.4006    6.5052 H   0  0  0  0  0  0  0  0  0  0  0  0
   -9.5852    9.5007    7.5942 H   0  0  0  0  0  0  0  0  0  0  0  0
  -10.1733   10.4176    4.7598 H   0  0  0  0  0  0  0  0  0  0  0  0
  -10.9633    8.1624    6.3273 H   0  0  0  0  0  0  0  0  0  0  0  0
  -12.5117    9.7487    6.5138 H   0  0  0  0  0  0  0  0  0  0  0  0
   -9.8805   12.4371    6.7214 H   0  0  0  0  0  0  0  0  0  0  0  0
   -8.4511   11.8776    8.7155 H   0  0  0  0  0  0  0  0  0  0  0  0
  -10.8765   10.8403    9.7233 H   0  0  0  0  0  0  0  0  0  0  0  0
   -9.5373   14.0530    8.7222 H   0  0  0  0  0  0  0  0  0  0  0  0
   -9.5360   13.3660   10.3632 H   0  0  0  0  0  0  0  0  0  0  0  0
  -11.5417   14.2763    9.7714 H   0  0  0  0  0  0  0  0  0  0  0  0
   -5.9956   11.4895    5.8050 H   0  0  0  0  0  0  0  0  0  0  0  0
   -5.6893   11.3331    3.3502 H   0  0  0  0  0  0  0  0  0  0  0  0
   -4.3137    9.5401    3.4012 H   0  0  0  0  0  0  0  0  0  0  0  0
   -8.0158   11.0715    4.0892 H   0  0  0  0  0  0  0  0  0  0  0  0
   -8.9099    9.6657    2.1892 H   0  0  0  0  0  0  0  0  0  0  0  0
   -7.2865    9.0497    1.9141 H   0  0  0  0  0  0  0  0  0  0  0  0
   -8.0439   11.7977    1.8261 H   0  0  0  0  0  0  0  0  0  0  0  0
   -4.1868   12.5793    6.0760 H   0  0  0  0  0  0  0  0  0  0  0  0
   -1.6513   10.9098    5.7248 H   0  0  0  0  0  0  0  0  0  0  0  0
   -2.5065   11.4337    7.8213 H   0  0  0  0  0  0  0  0  0  0  0  0
   -1.9532   13.9393    5.5516 H   0  0  0  0  0  0  0  0  0  0  0  0
   -1.7421   11.8373    3.3119 H   0  0  0  0  0  0  0  0  0  0  0  0
   -1.1798   14.1278    2.5400 H   0  0  0  0  0  0  0  0  0  0  0  0
   -3.0414   14.3566    0.8451 H   0  0  0  0  0  0  0  0  0  0  0  0
   -3.9838   13.1627    1.7411 H   0  0  0  0  0  0  0  0  0  0  0  0
   -2.7973   12.2275    0.0440 H   0  0  0  0  0  0  0  0  0  0  0  0
   -2.3612   15.3038    4.1566 H   0  0  0  0  0  0  0  0  0  0  0  0
   -0.1566   15.0194    4.6814 H   0  0  0  0  0  0  0  0  0  0  0  0
    2.2480   15.3096    5.0002 H   0  0  0  0  0  0  0  0  0  0  0  0
    1.5654   12.9812    3.5073 H   0  0  0  0  0  0  0  0  0  0  0  0
    2.2844   12.3145    5.6937 H   0  0  0  0  0  0  0  0  0  0  0  0
    4.4558   12.7587    6.1529 H   0  0  0  0  0  0  0  0  0  0  0  0
    2.9039   13.1347    7.9781 H   0  0  0  0  0  0  0  0  0  0  0  0
    3.8001   15.1239    7.1798 H   0  0  0  0  0  0  0  0  0  0  0  0
    0.4912   12.7431    7.4701 H   0  0  0  0  0  0  0  0  0  0  0  0
    1.2589   13.6948    9.7011 H   0  0  0  0  0  0  0  0  0  0  0  0
   -0.4302   14.0618    9.2901 H   0  0  0  0  0  0  0  0  0  0  0  0
    1.7568   15.7947    8.7695 H   0  0  0  0  0  0  0  0  0  0  0  0
  -12.9599    9.3965    4.1764 H   0  0  0  0  0  0  0  0  0  0  0  0
  -11.8322   10.4736    3.3161 H   0  0  0  0  0  0  0  0  0  0  0  0
  -14.8453   10.5988    3.4459 H   0  0  0  0  0  0  0  0  0  0  0  0
  -13.7925   10.6284    2.0390 H   0  0  0  0  0  0  0  0  0  0  0  0
  -14.7673   12.8684    2.4718 H   0  0  0  0  0  0  0  0  0  0  0  0
  -13.0030   12.9142    2.6930 H   0  0  0  0  0  0  0  0  0  0  0  0
  -14.0864   12.8692    4.1026 H   0  0  0  0  0  0  0  0  0  0  0  0
  1  2  1  0  0  0  0
  1 49  1  0  0  0  0
  2  3  1  0  0  0  0
  2 16  1  0  0  0  0
  2 50  1  6  0  0  0
  3  4  1  0  0  0  0
  3 22  1  0  0  0  0
  3 51  1  1  0  0  0
  4  5  1  0  0  0  0
  5  6  1  0  0  0  0
  5 11  1  0  0  0  0
  5 52  1  1  0  0  0
  6  7  1  0  0  0  0
  6  8  1  0  0  0  0
  6 53  1  6  0  0  0
  7 54  1  0  0  0  0
  8  9  1  0  0  0  0
  8 10  1  0  0  0  0
  8 55  1  1  0  0  0
  9 46  1  0  0  0  0
 10 11  1  0  0  0  0
 11 12  1  0  0  0  0
 11 56  1  6  0  0  0
 12 13  1  0  0  0  0
 12 14  1  0  0  0  0
 12 57  1  6  0  0  0
 13 58  1  0  0  0  0
 14 15  1  0  0  0  0
 14 59  1  0  0  0  0
 14 60  1  0  0  0  0
 15 61  1  0  0  0  0
 16 17  1  0  0  0  0
 16 23  1  0  0  0  0
 16 62  1  1  0  0  0
 17 18  1  0  0  0  0
 17 19  1  0  0  0  0
 17 63  1  6  0  0  0
 18 64  1  0  0  0  0
 19 20  1  0  0  0  0
 19 22  1  0  0  0  0
 19 65  1  1  0  0  0
 20 21  1  0  0  0  0
 20 66  1  0  0  0  0
 20 67  1  0  0  0  0
 21 68  1  0  0  0  0
 23 24  1  0  0  0  0
 24 25  1  0  0  0  0
 24 33  1  0  0  0  0
 24 69  1  1  0  0  0
 25 26  1  0  0  0  0
 25 27  1  0  0  0  0
 25 70  1  6  0  0  0
 26 71  1  0  0  0  0
 27 28  1  0  0  0  0
 27 34  1  0  0  0  0
 27 72  1  1  0  0  0
 28 29  1  0  0  0  0
 28 33  1  0  0  0  0
 28 73  1  6  0  0  0
 29 30  1  0  0  0  0
 29 32  1  0  0  0  0
 29 74  1  6  0  0  0
 30 31  1  0  0  0  0
 30 75  1  0  0  0  0
 30 76  1  0  0  0  0
 31 77  1  0  0  0  0
 32 78  1  0  0  0  0
 34 35  1  0  0  0  0
 35 36  1  0  0  0  0
 35 43  1  0  0  0  0
 35 79  1  6  0  0  0
 36 37  1  0  0  0  0
 36 38  1  0  0  0  0
 36 80  1  1  0  0  0
 37 81  1  0  0  0  0
 38 39  1  0  0  0  0
 38 40  1  0  0  0  0
 38 82  1  6  0  0  0
 39 83  1  0  0  0  0
 40 41  1  0  0  0  0
 40 42  1  0  0  0  0
 40 84  1  1  0  0  0
 41 85  1  0  0  0  0
 42 43  1  0  0  0  0
 42 44  1  0  0  0  0
 42 86  1  6  0  0  0
 44 45  1  0  0  0  0
 44 87  1  0  0  0  0
 44 88  1  0  0  0  0
 45 89  1  0  0  0  0
 46 47  1  0  0  0  0
 46 90  1  0  0  0  0
 46 91  1  0  0  0  0
 47 48  1  0  0  0  0
 47 92  1  0  0  0  0
 47 93  1  0  0  0  0
 48 94  1  0  0  0  0
 48 95  1  0  0  0  0
 48 96  1  0  0  0  0
M  END
$$$$
