L0B
 OpenBabel04161911453D

 53 55  0  0  1  0  0  0  0  0999 V2000
   42.6771  -13.8684   -0.9355 O   0  0  0  0  0  0  0  0  0  0  0  0
   41.5626  -13.5916   -1.3642 C   0  0  0  0  0  0  0  0  0  0  0  0
   32.1179  -16.7294    0.9059 C   0  0  0  0  0  0  0  0  0  0  0  0
   32.3316  -18.0499    0.5486 C   0  0  0  0  0  0  0  0  0  0  0  0
   33.5885  -18.4890    0.0921 C   0  0  0  0  0  0  0  0  0  0  0  0
   34.6369  -17.5670    0.0044 C   0  0  0  0  0  0  0  0  0  0  0  0
   34.3803  -16.2270    0.3229 C   0  0  0  0  0  0  0  0  0  0  0  0
   33.1435  -15.8057    0.8013 C   0  0  0  0  0  0  0  0  0  0  0  0
   37.0930  -17.3081    0.3351 C   0  0  0  0  0  0  0  0  0  0  0  0
   38.5208  -17.3566   -0.2245 C   0  0  2  0  0  0  0  0  0  0  0  0
   39.4119  -17.4807    1.0133 C   0  0  0  0  0  0  0  0  0  0  0  0
   40.8763  -17.3005    0.7323 C   0  0  0  0  0  0  0  0  0  0  0  0
   41.0936  -15.9646    0.0618 C   0  0  0  0  0  0  0  0  0  0  0  0
   40.3897  -15.8675   -1.2972 C   0  0  1  0  0  0  0  0  0  0  0  0
   38.8644  -16.0748   -1.0781 N   0  3  2  0  0  0  0  0  0  0  0  0
   38.1523  -14.8057   -0.6419 C   0  0  0  0  0  0  0  0  0  0  0  0
   40.6907  -14.5783   -2.1127 C   0  0  0  0  0  0  0  0  0  0  0  0
   36.0197  -18.0862   -0.3981 C   0  0  2  0  0  0  0  0  0  0  0  0
   36.2088  -17.9673   -1.7991 O   0  0  0  0  0  0  0  0  0  0  0  0
   40.5477  -11.7432   -0.0046 C   0  0  0  0  0  0  0  0  0  0  0  0
   41.1034  -12.1981   -1.2007 C   0  0  0  0  0  0  0  0  0  0  0  0
   41.4127  -11.3262   -2.2449 C   0  0  0  0  0  0  0  0  0  0  0  0
   41.1642   -9.9628   -2.0880 C   0  0  0  0  0  0  0  0  0  0  0  0
   40.6078   -9.4965   -0.9013 C   0  0  0  0  0  0  0  0  0  0  0  0
   40.2872  -10.3718    0.1361 C   0  0  0  0  0  0  0  0  0  0  0  0
   31.1572  -16.4147    1.2741 H   0  0  0  0  0  0  0  0  0  0  0  0
   31.5173  -18.7670    0.6288 H   0  0  0  0  0  0  0  0  0  0  0  0
   33.7262  -19.5281   -0.1505 H   0  0  0  0  0  0  0  0  0  0  0  0
   35.1274  -15.4370    0.2460 H   0  0  0  0  0  0  0  0  0  0  0  0
   32.9875  -14.7602    1.0858 H   0  0  0  0  0  0  0  0  0  0  0  0
   36.8167  -16.2726    0.3983 H   0  0  0  0  0  0  0  0  0  0  0  0
   37.0523  -17.6005    1.3944 H   0  0  0  0  0  0  0  0  0  0  0  0
   38.6850  -18.2131   -0.8933 H   0  0  0  0  0  0  0  0  0  0  0  0
   39.2594  -18.4660    1.4711 H   0  0  0  0  0  0  0  0  0  0  0  0
   39.1107  -16.7396    1.7642 H   0  0  0  0  0  0  0  0  0  0  0  0
   41.2596  -18.1151    0.1075 H   0  0  0  0  0  0  0  0  0  0  0  0
   41.4280  -17.3271    1.6787 H   0  0  0  0  0  0  0  0  0  0  0  0
   42.1723  -15.8621   -0.0448 H   0  0  0  0  0  0  0  0  0  0  0  0
   40.7377  -15.1642    0.7239 H   0  0  0  0  0  0  0  0  0  0  0  0
   40.6835  -16.7260   -1.9206 H   0  0  0  0  0  0  0  0  0  0  0  0
   37.0915  -14.9116   -0.8709 H   0  0  0  0  0  0  0  0  0  0  0  0
   38.4609  -13.9474   -1.2343 H   0  0  0  0  0  0  0  0  0  0  0  0
   38.3705  -14.6336    0.4101 H   0  0  0  0  0  0  0  0  0  0  0  0
   41.2387  -14.8429   -3.0132 H   0  0  0  0  0  0  0  0  0  0  0  0
   39.8067  -14.0778   -2.5109 H   0  0  0  0  0  0  0  0  0  0  0  0
   36.1234  -19.1387   -0.1229 H   0  0  0  0  0  0  0  0  0  0  0  0
   35.4643  -18.4557   -2.2073 H   0  0  0  0  0  0  0  0  0  0  0  0
   40.3687  -12.4025    0.8191 H   0  0  0  0  0  0  0  0  0  0  0  0
   41.9049  -11.6864   -3.1478 H   0  0  0  0  0  0  0  0  0  0  0  0
   41.4467   -9.2697   -2.8744 H   0  0  0  0  0  0  0  0  0  0  0  0
   40.4497   -8.4211   -0.7715 H   0  0  0  0  0  0  0  0  0  0  0  0
   39.8833   -9.9781    1.0698 H   0  0  0  0  0  0  0  0  0  0  0  0
   38.4635  -16.2990   -2.0063 H   0  0  0  0  0  0  0  0  0  0  0  0
  1  2  2  0  0  0  0
  2 17  1  0  0  0  0
  2 21  1  0  0  0  0
  3  4  2  0  0  0  0
  3  8  1  0  0  0  0
  3 26  1  0  0  0  0
  4  5  1  0  0  0  0
  4 27  1  0  0  0  0
  5  6  2  0  0  0  0
  5 28  1  0  0  0  0
  6  7  1  0  0  0  0
  6 18  1  0  0  0  0
  7  8  2  0  0  0  0
  7 29  1  0  0  0  0
  8 30  1  0  0  0  0
  9 10  1  0  0  0  0
  9 18  1  0  0  0  0
  9 31  1  0  0  0  0
  9 32  1  0  0  0  0
 10 11  1  0  0  0  0
 10 15  1  0  0  0  0
 10 33  1  6  0  0  0
 11 12  1  0  0  0  0
 11 34  1  0  0  0  0
 11 35  1  0  0  0  0
 12 13  1  0  0  0  0
 12 36  1  0  0  0  0
 12 37  1  0  0  0  0
 13 14  1  0  0  0  0
 13 38  1  0  0  0  0
 13 39  1  0  0  0  0
 14 15  1  0  0  0  0
 14 17  1  0  0  0  0
 14 40  1  6  0  0  0
 15 16  1  0  0  0  0
 15 53  1  6  0  0  0
 16 41  1  0  0  0  0
 16 42  1  0  0  0  0
 16 43  1  0  0  0  0
 17 44  1  0  0  0  0
 17 45  1  0  0  0  0
 18 19  1  0  0  0  0
 18 46  1  1  0  0  0
 19 47  1  0  0  0  0
 20 21  2  0  0  0  0
 20 25  1  0  0  0  0
 20 48  1  0  0  0  0
 21 22  1  0  0  0  0
 22 23  2  0  0  0  0
 22 49  1  0  0  0  0
 23 24  1  0  0  0  0
 23 50  1  0  0  0  0
 24 25  2  0  0  0  0
 24 51  1  0  0  0  0
 25 52  1  0  0  0  0
M  CHG  1  15   1
M  END
$$$$
