L26
 OpenBabel04161909493D

 46 47  0  0  1  0  0  0  0  0999 V2000
    5.3080    7.0236   -3.1347 C   0  0  0  0  0  0  0  0  0  0  0  0
    4.9946    8.2833   -2.6321 C   0  0  0  0  0  0  0  0  0  0  0  0
    7.0379    8.2624   -1.3308 C   0  0  0  0  0  0  0  0  0  0  0  0
   12.7053    5.0632   -0.2594 C   0  0  2  0  0  0  0  0  0  0  0  0
   11.6920    5.9782    0.2128 C   0  0  1  0  0  0  0  0  0  0  0  0
    7.3558    7.0078   -1.8531 C   0  0  0  0  0  0  0  0  0  0  0  0
    6.4999    6.4092   -2.7716 C   0  0  0  0  0  0  0  0  0  0  0  0
    5.8681    8.9084   -1.7398 C   0  0  0  0  0  0  0  0  0  0  0  0
   10.5123    5.6794   -0.4658 C   0  0  1  0  0  0  0  0  0  0  0  0
   12.0770    4.2080   -1.1722 C   0  0  2  0  0  0  0  0  0  0  0  0
   14.1308    4.9737    0.0964 C   0  0  0  0  0  0  0  0  0  0  0  0
    9.2308    6.3644   -0.3807 C   0  0  0  0  0  0  0  0  0  0  0  0
   12.6086    3.0694   -1.9752 C   0  0  0  0  0  0  0  0  0  0  0  0
   14.8208    6.2217    0.5874 C   0  0  0  0  0  0  0  0  0  0  0  0
   11.8233    7.0426    1.2854 C   0  0  0  0  0  0  0  0  0  0  0  0
   10.7687    4.5908   -1.2718 N   0  3  0  0  0  0  0  0  0  0  0  0
    8.5284    6.3076   -1.5590 N   0  0  0  0  0  0  0  0  0  0  0  0
   14.7806    3.9417   -0.0674 O   0  0  0  0  0  0  0  0  0  0  0  0
    8.8337    6.9288    0.6324 O   0  0  0  0  0  0  0  0  0  0  0  0
    4.5489    6.2935   -3.9953 O   0  0  0  0  0  0  0  0  0  0  0  0
   11.8772    6.3890    2.6578 C   0  0  0  0  0  0  0  0  0  0  0  0
    3.1870    6.6799   -4.1149 C   0  0  0  0  0  0  0  0  0  0  0  0
    2.4841    5.5956   -4.9220 C   0  0  0  0  0  0  0  0  0  0  0  0
    1.6582    5.8577   -5.7787 O   0  0  0  0  0  0  0  0  0  0  0  0
    2.8001    4.2999   -4.6267 N   0  0  0  0  0  0  0  0  0  0  0  0
    4.0869    8.8007   -2.9242 H   0  0  0  0  0  0  0  0  0  0  0  0
    7.7131    8.7721   -0.6474 H   0  0  0  0  0  0  0  0  0  0  0  0
    6.7305    5.4203   -3.1630 H   0  0  0  0  0  0  0  0  0  0  0  0
    5.6347    9.9024   -1.3669 H   0  0  0  0  0  0  0  0  0  0  0  0
   11.8480    2.6452   -2.6424 H   0  0  0  0  0  0  0  0  0  0  0  0
   12.9550    2.2649   -1.3171 H   0  0  0  0  0  0  0  0  0  0  0  0
   13.4458    3.3979   -2.5981 H   0  0  0  0  0  0  0  0  0  0  0  0
   15.8737    6.0187    0.7924 H   0  0  0  0  0  0  0  0  0  0  0  0
   14.3894    6.5728    1.5212 H   0  0  0  0  0  0  0  0  0  0  0  0
   14.7510    6.9961   -0.1827 H   0  0  0  0  0  0  0  0  0  0  0  0
   10.9883    7.7510    1.2594 H   0  0  0  0  0  0  0  0  0  0  0  0
   12.7007    7.6793    1.1279 H   0  0  0  0  0  0  0  0  0  0  0  0
   10.0922    4.1343   -1.8634 H   0  0  0  0  0  0  0  0  0  0  0  0
    8.8494    5.6811   -2.2804 H   0  0  0  0  0  0  0  0  0  0  0  0
   11.9543    7.1292    3.4599 H   0  0  0  0  0  0  0  0  0  0  0  0
   12.7372    5.7163    2.7335 H   0  0  0  0  0  0  0  0  0  0  0  0
   10.9774    5.7878    2.8196 H   0  0  0  0  0  0  0  0  0  0  0  0
    3.1030    7.6248   -4.6680 H   0  0  0  0  0  0  0  0  0  0  0  0
    2.6896    6.7602   -3.1425 H   0  0  0  0  0  0  0  0  0  0  0  0
    2.3724    3.5636   -5.1716 H   0  0  0  0  0  0  0  0  0  0  0  0
    3.5075    4.0556   -3.9483 H   0  0  0  0  0  0  0  0  0  0  0  0
  1  2  2  0  0  0  0
  1  7  1  0  0  0  0
  1 20  1  0  0  0  0
  2  8  1  0  0  0  0
  2 26  1  0  0  0  0
  3  6  1  0  0  0  0
  3  8  2  0  0  0  0
  3 27  1  0  0  0  0
  4  5  1  0  0  0  0
  4 10  1  0  0  0  0
  4 11  1  1  0  0  0
  5  9  1  0  0  0  0
  5 15  1  1  0  0  0
  6  7  2  0  0  0  0
  6 17  1  0  0  0  0
  7 28  1  0  0  0  0
  8 29  1  0  0  0  0
  9 12  1  6  0  0  0
  9 16  1  0  0  0  0
 10 13  1  6  0  0  0
 10 16  1  0  0  0  0
 11 14  1  0  0  0  0
 11 18  2  0  0  0  0
 12 17  1  0  0  0  0
 12 19  2  0  0  0  0
 13 30  1  0  0  0  0
 13 31  1  0  0  0  0
 13 32  1  0  0  0  0
 14 33  1  0  0  0  0
 14 34  1  0  0  0  0
 14 35  1  0  0  0  0
 15 21  1  0  0  0  0
 15 36  1  0  0  0  0
 15 37  1  0  0  0  0
 16 38  1  0  0  0  0
 17 39  1  0  0  0  0
 20 22  1  0  0  0  0
 21 40  1  0  0  0  0
 21 41  1  0  0  0  0
 21 42  1  0  0  0  0
 22 23  1  0  0  0  0
 22 43  1  0  0  0  0
 22 44  1  0  0  0  0
 23 24  2  0  0  0  0
 23 25  1  0  0  0  0
 25 45  1  0  0  0  0
 25 46  1  0  0  0  0
M  CHG  1  16   1
M  END
$$$$
