L33
 OpenBabel04161909503D

 55 56  0  0  1  0  0  0  0  0999 V2000
    1.5323   54.9633   25.0679 C   0  0  0  0  0  0  0  0  0  0  0  0
    0.9658   54.1554   24.0850 C   0  0  0  0  0  0  0  0  0  0  0  0
    2.2825   55.3015   22.3920 C   0  0  0  0  0  0  0  0  0  0  0  0
    5.6211   60.8455   21.3543 C   0  0  1  0  0  0  0  0  0  0  0  0
    4.7557   59.9405   22.0929 C   0  0  2  0  0  0  0  0  0  0  0  0
    2.8525   56.1178   23.3707 C   0  0  0  0  0  0  0  0  0  0  0  0
    2.4621   55.9493   24.7065 C   0  0  0  0  0  0  0  0  0  0  0  0
    1.3456   54.3257   22.7527 C   0  0  0  0  0  0  0  0  0  0  0  0
    4.9953   58.6509   21.6178 C   0  0  1  0  0  0  0  0  0  0  0  0
    6.3915   60.0526   20.5145 C   0  0  2  0  0  0  0  0  0  0  0  0
    5.7445   62.3183   21.4005 C   0  0  0  0  0  0  0  0  0  0  0  0
    4.3961   57.3417   21.8466 C   0  0  0  0  0  0  0  0  0  0  0  0
    7.4510   60.4260   19.5363 C   0  0  0  0  0  0  0  0  0  0  0  0
    4.5513   63.1504   21.8112 C   0  0  0  0  0  0  0  0  0  0  0  0
    4.4716   60.8702   24.3955 C   0  0  0  0  0  0  0  0  0  0  0  0
    2.7184   50.7158   19.7162 C   0  0  0  0  0  0  0  0  0  0  0  0
    2.3965   50.7959   23.3929 C   0  0  0  0  0  0  0  0  0  0  0  0
    3.7674   60.3613   23.1416 C   0  0  0  0  0  0  0  0  0  0  0  0
    2.6955   51.9930   20.5434 C   0  0  0  0  0  0  0  0  0  0  0  0
    1.2903   50.9024   22.3604 C   0  0  0  0  0  0  0  0  0  0  0  0
    5.9868   58.7570   20.6656 N   0  3  0  0  0  0  0  0  0  0  0  0
    3.7546   57.1637   23.0596 N   0  0  0  0  0  0  0  0  0  0  0  0
    1.4855   51.9966   21.3885 N   0  0  0  0  0  0  0  0  0  0  0  0
    6.7812   62.8865   21.0704 O   0  0  0  0  0  0  0  0  0  0  0  0
    4.5250   56.4545   21.0058 O   0  0  0  0  0  0  0  0  0  0  0  0
    0.6434   54.1208   20.2469 O   0  0  0  0  0  0  0  0  0  0  0  0
   -0.7672   53.0093   22.0067 O   0  0  0  0  0  0  0  0  0  0  0  0
    0.5325   53.3825   21.4872 S   0  0  0  0  0  0  0  0  0  0  0  0
    1.2411   54.8383   26.1046 H   0  0  0  0  0  0  0  0  0  0  0  0
    0.2293   53.4033   24.3579 H   0  0  0  0  0  0  0  0  0  0  0  0
    2.5138   55.4306   21.3383 H   0  0  0  0  0  0  0  0  0  0  0  0
    2.8735   56.5809   25.4905 H   0  0  0  0  0  0  0  0  0  0  0  0
    7.8422   59.5503   19.0113 H   0  0  0  0  0  0  0  0  0  0  0  0
    8.2897   60.9121   20.0453 H   0  0  0  0  0  0  0  0  0  0  0  0
    7.0508   61.1158   18.7854 H   0  0  0  0  0  0  0  0  0  0  0  0
    4.8115   64.2113   21.7529 H   0  0  0  0  0  0  0  0  0  0  0  0
    4.2562   62.9724   22.8411 H   0  0  0  0  0  0  0  0  0  0  0  0
    3.7117   62.9514   21.1414 H   0  0  0  0  0  0  0  0  0  0  0  0
    3.7404   61.1992   25.1376 H   0  0  0  0  0  0  0  0  0  0  0  0
    5.1371   61.7141   24.1888 H   0  0  0  0  0  0  0  0  0  0  0  0
    5.1009   60.0903   24.8331 H   0  0  0  0  0  0  0  0  0  0  0  0
    3.5444   50.7196   19.0018 H   0  0  0  0  0  0  0  0  0  0  0  0
    1.7778   50.6051   19.1648 H   0  0  0  0  0  0  0  0  0  0  0  0
    2.8371   49.8332   20.3528 H   0  0  0  0  0  0  0  0  0  0  0  0
    2.1971   49.9452   24.0541 H   0  0  0  0  0  0  0  0  0  0  0  0
    2.4556   51.6927   24.0135 H   0  0  0  0  0  0  0  0  0  0  0  0
    3.3765   50.6337   22.9359 H   0  0  0  0  0  0  0  0  0  0  0  0
    3.0999   59.5440   23.4224 H   0  0  0  0  0  0  0  0  0  0  0  0
    3.0911   61.1187   22.7303 H   0  0  0  0  0  0  0  0  0  0  0  0
    2.6929   52.8401   19.8492 H   0  0  0  0  0  0  0  0  0  0  0  0
    3.6045   52.0889   21.1461 H   0  0  0  0  0  0  0  0  0  0  0  0
    0.3349   51.0124   22.8797 H   0  0  0  0  0  0  0  0  0  0  0  0
    1.2025   49.9588   21.8112 H   0  0  0  0  0  0  0  0  0  0  0  0
    6.3215   57.9595   20.1347 H   0  0  0  0  0  0  0  0  0  0  0  0
    4.0194   57.7863   23.8123 H   0  0  0  0  0  0  0  0  0  0  0  0
  1  2  2  0  0  0  0
  1  7  1  0  0  0  0
  1 29  1  0  0  0  0
  2  8  1  0  0  0  0
  2 30  1  0  0  0  0
  3  6  1  0  0  0  0
  3  8  2  0  0  0  0
  3 31  1  0  0  0  0
  4  5  1  0  0  0  0
  4 10  1  0  0  0  0
  4 11  1  6  0  0  0
  5  9  1  0  0  0  0
  5 18  1  6  0  0  0
  6  7  2  0  0  0  0
  6 22  1  0  0  0  0
  7 32  1  0  0  0  0
  8 28  1  0  0  0  0
  9 12  1  6  0  0  0
  9 21  1  0  0  0  0
 10 13  1  6  0  0  0
 10 21  1  0  0  0  0
 11 14  1  0  0  0  0
 11 24  2  0  0  0  0
 12 22  1  0  0  0  0
 12 25  2  0  0  0  0
 13 33  1  0  0  0  0
 13 34  1  0  0  0  0
 13 35  1  0  0  0  0
 14 36  1  0  0  0  0
 14 37  1  0  0  0  0
 14 38  1  0  0  0  0
 15 18  1  0  0  0  0
 15 39  1  0  0  0  0
 15 40  1  0  0  0  0
 15 41  1  0  0  0  0
 16 19  1  0  0  0  0
 16 42  1  0  0  0  0
 16 43  1  0  0  0  0
 16 44  1  0  0  0  0
 17 20  1  0  0  0  0
 17 45  1  0  0  0  0
 17 46  1  0  0  0  0
 17 47  1  0  0  0  0
 18 48  1  0  0  0  0
 18 49  1  0  0  0  0
 19 23  1  0  0  0  0
 19 50  1  0  0  0  0
 19 51  1  0  0  0  0
 20 23  1  0  0  0  0
 20 52  1  0  0  0  0
 20 53  1  0  0  0  0
 21 54  1  0  0  0  0
 22 55  1  0  0  0  0
 23 28  1  0  0  0  0
 26 28  2  0  0  0  0
 27 28  2  0  0  0  0
M  CHG  1  21   1
M  END
$$$$
