L3B
 OpenBabel04161909543D

 21 22  0  0  0  0  0  0  0  0999 V2000
   11.9859   31.9697   33.1793 S   0  0  0  0  0  0  0  0  0  0  0  0
   12.8452   30.9705   32.1120 C   0  0  0  0  0  0  0  0  0  0  0  0
   13.8878   31.2840   31.3789 N   0  0  0  0  0  0  0  0  0  0  0  0
   14.2468   30.1199   30.6800 C   0  0  0  0  0  0  0  0  0  0  0  0
   13.4263   29.0806   30.9497 N   0  0  0  0  0  0  0  0  0  0  0  0
   12.5412   29.6255   31.8742 N   0  3  0  0  0  0  0  0  0  0  0  0
   15.4427   30.0880   29.7362 C   0  0  0  0  0  0  0  0  0  0  0  0
   15.2599   30.3708   28.3571 C   0  0  0  0  0  0  0  0  0  0  0  0
   16.3367   30.3560   27.4330 C   0  0  0  0  0  0  0  0  0  0  0  0
   17.6347   30.0637   27.8740 C   0  0  0  0  0  0  0  0  0  0  0  0
   17.8692   29.7918   29.2325 C   0  0  0  0  0  0  0  0  0  0  0  0
   16.7885   29.8074   30.1613 C   0  0  0  0  0  0  0  0  0  0  0  0
   17.1319   29.5024   31.6056 C   0  0  0  0  0  0  0  0  0  0  0  0
   11.8041   29.0804   32.2847 H   0  0  0  0  0  0  0  0  0  0  0  0
   14.2445   30.6007   28.0280 H   0  0  0  0  0  0  0  0  0  0  0  0
   16.1828   30.5689   26.3692 H   0  0  0  0  0  0  0  0  0  0  0  0
   18.4461   30.0555   27.1414 H   0  0  0  0  0  0  0  0  0  0  0  0
   18.8750   29.5626   29.6004 H   0  0  0  0  0  0  0  0  0  0  0  0
   16.2350   29.5468   32.2163 H   0  0  0  0  0  0  0  0  0  0  0  0
   17.8612   30.2242   32.0103 H   0  0  0  0  0  0  0  0  0  0  0  0
   17.5696   28.4948   31.7085 H   0  0  0  0  0  0  0  0  0  0  0  0
  1  2  1  0  0  0  0
  2  3  1  0  0  0  0
  2  6  2  0  0  0  0
  3  4  1  0  0  0  0
  4  5  2  0  0  0  0
  4  7  1  0  0  0  0
  5  6  1  0  0  0  0
  6 14  1  0  0  0  0
  7  8  2  0  0  0  0
  7 12  1  0  0  0  0
  8  9  1  0  0  0  0
  8 15  1  0  0  0  0
  9 10  2  0  0  0  0
  9 16  1  0  0  0  0
 10 11  1  0  0  0  0
 10 17  1  0  0  0  0
 11 12  2  0  0  0  0
 11 18  1  0  0  0  0
 12 13  1  0  0  0  0
 13 19  1  0  0  0  0
 13 20  1  0  0  0  0
 13 21  1  0  0  0  0
M  CHG  1   6   1
M  END
$$$$
