L40
 OpenBabel04161909503D

 49 50  0  0  1  0  0  0  0  0999 V2000
   -5.9217    9.7092   -1.5146 C   0  0  0  0  0  0  0  0  0  0  0  0
   -5.3581   10.1872   -0.3460 C   0  0  0  0  0  0  0  0  0  0  0  0
   -6.8954    8.8256    0.9353 C   0  0  0  0  0  0  0  0  0  0  0  0
  -12.4504    5.6551    0.5960 C   0  0  1  0  0  0  0  0  0  0  0  0
  -11.4018    6.5694    0.2359 C   0  0  1  0  0  0  0  0  0  0  0  0
   -7.4497    8.3110   -0.2343 C   0  0  0  0  0  0  0  0  0  0  0  0
   -6.9782    8.7819   -1.4749 C   0  0  0  0  0  0  0  0  0  0  0  0
   -5.8488    9.7460    0.8735 C   0  0  0  0  0  0  0  0  0  0  0  0
  -10.2532    6.1370    0.8925 C   0  0  1  0  0  0  0  0  0  0  0  0
  -11.9005    4.6976    1.4443 C   0  0  2  0  0  0  0  0  0  0  0  0
  -13.8588    5.6744    0.1917 C   0  0  0  0  0  0  0  0  0  0  0  0
   -8.9446    6.7388    0.9684 C   0  0  0  0  0  0  0  0  0  0  0  0
  -12.5471    3.5359    2.1190 C   0  0  0  0  0  0  0  0  0  0  0  0
  -14.5176    7.0145    0.0209 C   0  0  0  0  0  0  0  0  0  0  0  0
  -11.5304    7.2023   -2.1345 C   0  0  0  0  0  0  0  0  0  0  0  0
  -11.4935    7.7343   -0.7128 C   0  0  0  0  0  0  0  0  0  0  0  0
   -4.4854    7.9949    3.3658 C   0  0  0  0  0  0  0  0  0  0  0  0
  -10.5774    5.0145    1.6352 N   0  3  0  0  0  0  0  0  0  0  0  0
   -8.4836    7.3522   -0.1761 N   0  0  0  0  0  0  0  0  0  0  0  0
   -4.0942    9.2887    2.8353 N   0  0  0  0  0  0  0  0  0  0  0  0
  -14.5105    4.6420    0.0317 O   0  0  0  0  0  0  0  0  0  0  0  0
   -8.3078    6.6469    2.0256 O   0  0  0  0  0  0  0  0  0  0  0  0
   -4.4754   11.6092    1.9873 O   0  0  0  0  0  0  0  0  0  0  0  0
   -6.2931   10.4783    3.3241 O   0  0  0  0  0  0  0  0  0  0  0  0
   -7.5353    8.3245   -2.7891 C   0  0  0  0  0  0  0  0  0  0  0  0
   -5.2198   10.4253    2.3614 S   0  0  0  0  0  0  0  0  0  0  0  0
   -5.5261   10.0611   -2.4657 H   0  0  0  0  0  0  0  0  0  0  0  0
   -4.5490   10.9129   -0.3859 H   0  0  0  0  0  0  0  0  0  0  0  0
   -7.2458    8.5394    1.9209 H   0  0  0  0  0  0  0  0  0  0  0  0
  -11.8514    2.9871    2.7612 H   0  0  0  0  0  0  0  0  0  0  0  0
  -12.9421    2.8343    1.3759 H   0  0  0  0  0  0  0  0  0  0  0  0
  -13.3843    3.8710    2.7432 H   0  0  0  0  0  0  0  0  0  0  0  0
  -15.5615    6.8890   -0.2661 H   0  0  0  0  0  0  0  0  0  0  0  0
  -14.0527    7.5705   -0.7858 H   0  0  0  0  0  0  0  0  0  0  0  0
  -14.4551    7.5632    0.9653 H   0  0  0  0  0  0  0  0  0  0  0  0
  -11.5859    8.0099   -2.8663 H   0  0  0  0  0  0  0  0  0  0  0  0
  -12.3943    6.5442   -2.2781 H   0  0  0  0  0  0  0  0  0  0  0  0
  -10.6330    6.6078   -2.3330 H   0  0  0  0  0  0  0  0  0  0  0  0
  -10.6582    8.4277   -0.5920 H   0  0  0  0  0  0  0  0  0  0  0  0
  -12.3571    8.3694   -0.5104 H   0  0  0  0  0  0  0  0  0  0  0  0
   -3.5921    7.4601    3.7040 H   0  0  0  0  0  0  0  0  0  0  0  0
   -4.9634    7.3882    2.5942 H   0  0  0  0  0  0  0  0  0  0  0  0
   -5.1548    8.1058    4.2216 H   0  0  0  0  0  0  0  0  0  0  0  0
   -9.9289    4.5312    2.2406 H   0  0  0  0  0  0  0  0  0  0  0  0
   -8.9214    7.0887   -1.0536 H   0  0  0  0  0  0  0  0  0  0  0  0
   -3.1210    9.5799    2.8428 H   0  0  0  0  0  0  0  0  0  0  0  0
   -7.0023    8.8029   -3.6182 H   0  0  0  0  0  0  0  0  0  0  0  0
   -8.5910    8.5962   -2.8722 H   0  0  0  0  0  0  0  0  0  0  0  0
   -7.4115    7.2442   -2.8924 H   0  0  0  0  0  0  0  0  0  0  0  0
  1  2  2  0  0  0  0
  1  7  1  0  0  0  0
  1 27  1  0  0  0  0
  2  8  1  0  0  0  0
  2 28  1  0  0  0  0
  3  6  1  0  0  0  0
  3  8  2  0  0  0  0
  3 29  1  0  0  0  0
  4  5  1  0  0  0  0
  4 10  1  0  0  0  0
  4 11  1  1  0  0  0
  5  9  1  0  0  0  0
  5 16  1  6  0  0  0
  6  7  2  0  0  0  0
  6 19  1  0  0  0  0
  7 25  1  0  0  0  0
  8 26  1  0  0  0  0
  9 12  1  1  0  0  0
  9 18  1  0  0  0  0
 10 13  1  1  0  0  0
 10 18  1  0  0  0  0
 11 14  1  0  0  0  0
 11 21  2  0  0  0  0
 12 19  1  0  0  0  0
 12 22  2  0  0  0  0
 13 30  1  0  0  0  0
 13 31  1  0  0  0  0
 13 32  1  0  0  0  0
 14 33  1  0  0  0  0
 14 34  1  0  0  0  0
 14 35  1  0  0  0  0
 15 16  1  0  0  0  0
 15 36  1  0  0  0  0
 15 37  1  0  0  0  0
 15 38  1  0  0  0  0
 16 39  1  0  0  0  0
 16 40  1  0  0  0  0
 17 20  1  0  0  0  0
 17 41  1  0  0  0  0
 17 42  1  0  0  0  0
 17 43  1  0  0  0  0
 18 44  1  0  0  0  0
 19 45  1  0  0  0  0
 20 26  1  0  0  0  0
 20 46  1  0  0  0  0
 23 26  2  0  0  0  0
 24 26  2  0  0  0  0
 25 47  1  0  0  0  0
 25 48  1  0  0  0  0
 25 49  1  0  0  0  0
M  CHG  1  18   1
M  END
$$$$
