L6I
 OpenBabel04161910193D

 68 72  0  0  1  0  0  0  0  0999 V2000
   13.4786   65.4771   23.1707 C   0  0  0  0  0  0  0  0  0  0  0  0
   12.9229   64.2842   23.7116 O   0  0  0  0  0  0  0  0  0  0  0  0
   13.6789   63.6156   24.6290 C   0  0  0  0  0  0  0  0  0  0  0  0
   14.9152   64.0436   25.1354 C   0  0  0  0  0  0  0  0  0  0  0  0
   15.6541   63.3066   26.0818 C   0  0  0  0  0  0  0  0  0  0  0  0
   15.1205   62.0961   26.5625 C   0  0  0  0  0  0  0  0  0  0  0  0
   13.8800   61.6488   26.0751 C   0  0  0  0  0  0  0  0  0  0  0  0
   13.1451   60.5399   26.3904 N   0  0  0  0  0  0  0  0  0  0  0  0
   12.0245   60.5626   25.6752 N   0  0  0  0  0  0  0  0  0  0  0  0
   12.0666   61.6716   24.9045 N   0  3  0  0  0  0  0  0  0  0  0  0
   10.9682   61.9398   24.0127 C   0  0  0  0  0  0  0  0  0  0  0  0
   13.1960   62.4069   25.1315 C   0  0  0  0  0  0  0  0  0  0  0  0
   17.0156   63.7922   26.6145 C   0  0  1  0  0  0  0  0  0  0  0  0
   17.6329   65.0007   25.8913 C   0  0  0  0  0  0  0  0  0  0  0  0
   17.9380   64.7357   24.4198 C   0  0  0  0  0  0  0  0  0  0  0  0
   17.5718   65.6616   23.6381 O   0  0  0  0  0  0  0  0  0  0  0  0
   18.5080   63.6419   24.1590 O   0  0  0  0  0  0  0  0  0  0  0  0
   16.9452   64.1218   28.1160 C   0  0  0  0  0  0  0  0  0  0  0  0
   17.9846   63.7384   28.9730 C   0  0  0  0  0  0  0  0  0  0  0  0
   17.9274   64.0345   30.3375 C   0  0  0  0  0  0  0  0  0  0  0  0
   16.8339   64.7251   30.8802 C   0  0  0  0  0  0  0  0  0  0  0  0
   16.7987   65.0149   32.3562 C   0  0  0  0  0  0  0  0  0  0  0  0
   15.7883   65.1322   30.0277 C   0  0  0  0  0  0  0  0  0  0  0  0
   14.5567   65.8401   30.5550 C   0  0  0  0  0  0  0  0  0  0  0  0
   13.7021   64.9499   31.3729 N   0  0  0  0  0  0  0  0  0  0  0  0
   13.0983   63.7913   30.6635 C   0  0  0  0  0  0  0  0  0  0  0  0
   11.9287   64.1814   29.7472 C   0  0  1  0  0  0  0  0  0  0  0  0
   11.5129   62.9613   28.9262 C   0  0  0  0  0  0  0  0  0  0  0  0
   10.7710   64.5699   30.5102 O   0  0  0  0  0  0  0  0  0  0  0  0
   10.7197   65.9128   30.7560 C   0  0  0  0  0  0  0  0  0  0  0  0
    9.7131   66.6350   30.1098 C   0  0  0  0  0  0  0  0  0  0  0  0
    9.5566   68.0023   30.3542 C   0  0  0  0  0  0  0  0  0  0  0  0
   10.3951   68.6514   31.2588 C   0  0  0  0  0  0  0  0  0  0  0  0
   11.3875   67.9319   31.9231 C   0  0  0  0  0  0  0  0  0  0  0  0
   11.5421   66.5605   31.6749 C   0  0  0  0  0  0  0  0  0  0  0  0
   12.7647   65.6628   32.5794 S   0  0  0  0  0  0  0  0  0  0  0  0
   12.0879   64.6279   33.3309 O   0  0  0  0  0  0  0  0  0  0  0  0
   13.6011   66.6320   33.2608 O   0  0  0  0  0  0  0  0  0  0  0  0
   15.8633   64.8330   28.6560 C   0  0  0  0  0  0  0  0  0  0  0  0
   12.7632   65.8624   22.4385 H   0  0  0  0  0  0  0  0  0  0  0  0
   14.4213   65.2819   22.6499 H   0  0  0  0  0  0  0  0  0  0  0  0
   13.5951   66.2354   23.9514 H   0  0  0  0  0  0  0  0  0  0  0  0
   15.3297   64.9770   24.7684 H   0  0  0  0  0  0  0  0  0  0  0  0
   15.6499   61.5091   27.3085 H   0  0  0  0  0  0  0  0  0  0  0  0
   11.1160   62.8693   23.4677 H   0  0  0  0  0  0  0  0  0  0  0  0
   10.0517   62.0164   24.6049 H   0  0  0  0  0  0  0  0  0  0  0  0
   10.8940   61.1182   23.2980 H   0  0  0  0  0  0  0  0  0  0  0  0
   17.6978   62.9379   26.4959 H   0  0  0  0  0  0  0  0  0  0  0  0
   18.5867   65.2788   26.3588 H   0  0  0  0  0  0  0  0  0  0  0  0
   16.9837   65.8816   25.9835 H   0  0  0  0  0  0  0  0  0  0  0  0
   18.8493   63.2085   28.5785 H   0  0  0  0  0  0  0  0  0  0  0  0
   18.7473   63.7180   30.9783 H   0  0  0  0  0  0  0  0  0  0  0  0
   17.6951   64.6406   32.8601 H   0  0  0  0  0  0  0  0  0  0  0  0
   15.9379   64.5302   32.8249 H   0  0  0  0  0  0  0  0  0  0  0  0
   16.7511   66.0950   32.5285 H   0  0  0  0  0  0  0  0  0  0  0  0
   13.9776   66.2610   29.7247 H   0  0  0  0  0  0  0  0  0  0  0  0
   14.9008   66.7035   31.1350 H   0  0  0  0  0  0  0  0  0  0  0  0
   12.7685   63.0655   31.4168 H   0  0  0  0  0  0  0  0  0  0  0  0
   13.8757   63.2779   30.0877 H   0  0  0  0  0  0  0  0  0  0  0  0
   12.2178   64.9741   29.0451 H   0  0  0  0  0  0  0  0  0  0  0  0
   10.6697   63.2045   28.2716 H   0  0  0  0  0  0  0  0  0  0  0  0
   11.1860   62.1398   29.5740 H   0  0  0  0  0  0  0  0  0  0  0  0
   12.3411   62.6052   28.3100 H   0  0  0  0  0  0  0  0  0  0  0  0
    9.0446   66.1320   29.4155 H   0  0  0  0  0  0  0  0  0  0  0  0
    8.7744   68.5597   29.8445 H   0  0  0  0  0  0  0  0  0  0  0  0
   10.2688   69.7133   31.4567 H   0  0  0  0  0  0  0  0  0  0  0  0
   12.0230   68.4417   32.6446 H   0  0  0  0  0  0  0  0  0  0  0  0
   15.0545   65.1410   27.9963 H   0  0  0  0  0  0  0  0  0  0  0  0
  1  2  1  0  0  0  0
  1 40  1  0  0  0  0
  1 41  1  0  0  0  0
  1 42  1  0  0  0  0
  2  3  1  0  0  0  0
  3  4  2  0  0  0  0
  3 12  1  0  0  0  0
  4  5  1  0  0  0  0
  4 43  1  0  0  0  0
  5  6  2  0  0  0  0
  5 13  1  0  0  0  0
  6  7  1  0  0  0  0
  6 44  1  0  0  0  0
  7  8  1  0  0  0  0
  7 12  2  0  0  0  0
  8  9  1  0  0  0  0
  9 10  2  0  0  0  0
 10 11  1  0  0  0  0
 10 12  1  0  0  0  0
 11 45  1  0  0  0  0
 11 46  1  0  0  0  0
 11 47  1  0  0  0  0
 13 14  1  0  0  0  0
 13 18  1  0  0  0  0
 13 48  1  6  0  0  0
 14 15  1  0  0  0  0
 14 49  1  0  0  0  0
 14 50  1  0  0  0  0
 15 16  2  0  0  0  0
 15 17  1  0  0  0  0
 18 19  2  0  0  0  0
 18 39  1  0  0  0  0
 19 20  1  0  0  0  0
 19 51  1  0  0  0  0
 20 21  2  0  0  0  0
 20 52  1  0  0  0  0
 21 22  1  0  0  0  0
 21 23  1  0  0  0  0
 22 53  1  0  0  0  0
 22 54  1  0  0  0  0
 22 55  1  0  0  0  0
 23 24  1  0  0  0  0
 23 39  2  0  0  0  0
 24 25  1  0  0  0  0
 24 56  1  0  0  0  0
 24 57  1  0  0  0  0
 25 26  1  0  0  0  0
 25 36  1  0  0  0  0
 26 27  1  0  0  0  0
 26 58  1  0  0  0  0
 26 59  1  0  0  0  0
 27 28  1  0  0  0  0
 27 29  1  0  0  0  0
 27 60  1  6  0  0  0
 28 61  1  0  0  0  0
 28 62  1  0  0  0  0
 28 63  1  0  0  0  0
 29 30  1  0  0  0  0
 30 31  2  0  0  0  0
 30 35  1  0  0  0  0
 31 32  1  0  0  0  0
 31 64  1  0  0  0  0
 32 33  2  0  0  0  0
 32 65  1  0  0  0  0
 33 34  1  0  0  0  0
 33 66  1  0  0  0  0
 34 35  2  0  0  0  0
 34 67  1  0  0  0  0
 35 36  1  0  0  0  0
 36 37  2  0  0  0  0
 36 38  2  0  0  0  0
 39 68  1  0  0  0  0
M  CHG  1  10   1
M  END
$$$$
