L6Y
 OpenBabel04161909383D

 35 38  0  0  0  0  0  0  0  0999 V2000
  -20.3739   -0.9613   -2.2794 O   0  0  0  0  0  0  0  0  0  0  0  0
  -21.3483   -0.3071   -2.6368 C   0  0  0  0  0  0  0  0  0  0  0  0
  -22.2736    0.2893   -1.8049 N   0  3  0  0  0  0  0  0  0  0  0  0
  -22.0662    0.1168   -0.4163 O   0  0  0  0  0  0  0  0  0  0  0  0
  -23.4036    1.0147   -2.1442 C   0  0  0  0  0  0  0  0  0  0  0  0
  -24.1677    1.4798   -1.3087 O   0  0  0  0  0  0  0  0  0  0  0  0
  -23.6391    1.1873   -3.5925 C   0  0  0  0  0  0  0  0  0  0  0  0
  -24.7617    1.9126   -4.0152 C   0  0  0  0  0  0  0  0  0  0  0  0
  -25.0057    2.0739   -5.3687 C   0  0  0  0  0  0  0  0  0  0  0  0
  -24.1269    1.5149   -6.2923 C   0  0  0  0  0  0  0  0  0  0  0  0
  -22.9710    0.7994   -5.8924 C   0  0  0  0  0  0  0  0  0  0  0  0
  -22.7341    0.6222   -4.5105 C   0  0  0  0  0  0  0  0  0  0  0  0
  -21.6050   -0.1107   -4.0862 C   0  0  0  0  0  0  0  0  0  0  0  0
  -20.7070   -0.6623   -5.0070 C   0  0  0  0  0  0  0  0  0  0  0  0
  -20.9188   -0.4749   -6.3641 C   0  0  0  0  0  0  0  0  0  0  0  0
  -22.0415    0.2448   -6.8067 C   0  0  0  0  0  0  0  0  0  0  0  0
  -22.1991    0.4763   -8.2593 C   0  0  0  0  0  0  0  0  0  0  0  0
  -22.4841    1.5941   -8.6780 O   0  0  0  0  0  0  0  0  0  0  0  0
  -21.9504   -0.6060   -9.2281 C   0  0  0  0  0  0  0  0  0  0  0  0
  -22.2389   -1.9464   -8.9530 C   0  0  0  0  0  0  0  0  0  0  0  0
  -21.9358   -2.9157   -9.9061 C   0  0  0  0  0  0  0  0  0  0  0  0
  -21.3632   -2.5399  -11.1259 C   0  0  0  0  0  0  0  0  0  0  0  0
  -21.0995   -1.1993  -11.4009 C   0  0  0  0  0  0  0  0  0  0  0  0
  -21.3963   -0.2301  -10.4552 C   0  0  0  0  0  0  0  0  0  0  0  0
  -22.8317    0.5950   -0.0368 H   0  0  0  0  0  0  0  0  0  0  0  0
  -25.4463    2.3514   -3.2939 H   0  0  0  0  0  0  0  0  0  0  0  0
  -25.8683    2.6348   -5.7207 H   0  0  0  0  0  0  0  0  0  0  0  0
  -24.3617    1.6616   -7.3453 H   0  0  0  0  0  0  0  0  0  0  0  0
  -19.8377   -1.2249   -4.6670 H   0  0  0  0  0  0  0  0  0  0  0  0
  -20.1928   -0.8792   -7.0695 H   0  0  0  0  0  0  0  0  0  0  0  0
  -22.6989   -2.2490   -8.0145 H   0  0  0  0  0  0  0  0  0  0  0  0
  -22.1445   -3.9632   -9.7059 H   0  0  0  0  0  0  0  0  0  0  0  0
  -21.1269   -3.2962  -11.8693 H   0  0  0  0  0  0  0  0  0  0  0  0
  -20.6617   -0.9021  -12.3510 H   0  0  0  0  0  0  0  0  0  0  0  0
  -21.1910    0.8191  -10.6598 H   0  0  0  0  0  0  0  0  0  0  0  0
  1  2  2  0  0  0  0
  2  3  1  0  0  0  0
  2 13  1  0  0  0  0
  3  4  1  0  0  0  0
  3  5  1  0  0  0  0
  4 25  1  0  0  0  0
  5  6  2  0  0  0  0
  5  7  1  0  0  0  0
  7  8  2  0  0  0  0
  7 12  1  0  0  0  0
  8  9  1  0  0  0  0
  8 26  1  0  0  0  0
  9 10  2  0  0  0  0
  9 27  1  0  0  0  0
 10 11  1  0  0  0  0
 10 28  1  0  0  0  0
 11 12  2  0  0  0  0
 11 16  1  0  0  0  0
 12 13  1  0  0  0  0
 13 14  2  0  0  0  0
 14 15  1  0  0  0  0
 14 29  1  0  0  0  0
 15 16  2  0  0  0  0
 15 30  1  0  0  0  0
 16 17  1  0  0  0  0
 17 18  2  0  0  0  0
 17 19  1  0  0  0  0
 19 20  2  0  0  0  0
 19 24  1  0  0  0  0
 20 21  1  0  0  0  0
 20 31  1  0  0  0  0
 21 22  2  0  0  0  0
 21 32  1  0  0  0  0
 22 23  1  0  0  0  0
 22 33  1  0  0  0  0
 23 24  2  0  0  0  0
 23 34  1  0  0  0  0
 24 35  1  0  0  0  0
M  CHG  1   3   1
M  END
$$$$
