L96
 OpenBabel04161909513D

 64 68  0  0  1  0  0  0  0  0999 V2000
    6.4314    5.8475   14.3662 O   0  0  0  0  0  0  0  0  0  0  0  0
    6.4735    5.6196   15.6074 C   0  0  0  0  0  0  0  0  0  0  0  0
    5.9979    4.6552   16.2665 O   0  0  0  0  0  0  0  0  0  0  0  0
    7.2658    6.6365   16.4145 C   0  0  0  0  0  0  0  0  0  0  0  0
    6.3646    7.8181   16.7049 C   0  0  0  0  0  0  0  0  0  0  0  0
    5.2107    7.4971   17.5380 N   0  3  1  0  0  0  0  0  0  0  0  0
    3.9108    7.3951   17.0775 C   0  0  1  0  0  0  0  0  0  0  0  0
    3.1361    6.9602   18.1382 C   0  0  2  0  0  0  0  0  0  0  0  0
    1.6966    6.7334   18.1099 C   0  0  1  0  0  0  0  0  0  0  0  0
    0.7021    7.6777   17.9563 C   0  0  1  0  0  0  0  0  0  0  0  0
    0.7857    9.1534   17.8381 C   0  0  0  0  0  0  0  0  0  0  0  0
   -0.4579    6.9734   17.8799 N   0  3  0  0  0  0  0  0  0  0  0  0
   -0.3105    5.6484   18.0759 N   0  0  0  0  0  0  0  0  0  0  0  0
    1.0196    5.4918   18.1849 C   0  0  2  0  0  0  0  0  0  0  0  0
    1.6091    4.1368   18.3602 C   0  0  0  0  0  0  0  0  0  0  0  0
    3.9671    6.8570   19.2865 C   0  0  2  0  0  0  0  0  0  0  0  0
    3.7449    6.5053   20.6372 C   0  0  0  0  0  0  0  0  0  0  0  0
    4.7867    6.5048   21.5754 C   0  0  1  0  0  0  0  0  0  0  0  0
    4.5449    6.1102   23.0119 C   0  0  0  0  0  0  0  0  0  0  0  0
    3.4244    6.7468   23.8009 C   0  0  0  0  0  0  0  0  0  0  0  0
    4.8464    7.1194   24.0957 C   0  0  0  0  0  0  0  0  0  0  0  0
    6.0698    6.8656   21.1337 C   0  0  0  0  0  0  0  0  0  0  0  0
    6.3257    7.2449   19.8107 C   0  0  0  0  0  0  0  0  0  0  0  0
    5.2578    7.2277   18.8971 C   0  0  1  0  0  0  0  0  0  0  0  0
    3.5006    7.7391   15.7182 C   0  0  1  0  0  0  0  0  0  0  0  0
    3.1586    6.7617   14.7859 C   0  0  0  0  0  0  0  0  0  0  0  0
    2.7284    7.1407   13.5158 C   0  0  0  0  0  0  0  0  0  0  0  0
    2.6208    8.4985   13.1916 C   0  0  0  0  0  0  0  0  0  0  0  0
    2.9478    9.4807   14.1217 C   0  0  1  0  0  0  0  0  0  0  0  0
    3.4201    9.0951   15.3726 C   0  0  0  0  0  0  0  0  0  0  0  0
    2.7706   10.7722   13.7075 O   0  0  0  0  0  0  0  0  0  0  0  0
    2.8326   11.8262   14.6764 C   0  0  0  0  0  0  0  0  0  0  0  0
    4.2086   12.4814   14.6108 C   0  0  0  0  0  0  0  0  0  0  0  0
    1.7305   12.8145   14.3089 C   0  0  0  0  0  0  0  0  0  0  0  0
    8.1300    6.9648   15.8259 H   0  0  0  0  0  0  0  0  0  0  0  0
    7.6489    6.1837   17.3344 H   0  0  0  0  0  0  0  0  0  0  0  0
    6.0182    8.2739   15.7701 H   0  0  0  0  0  0  0  0  0  0  0  0
    6.9215    8.6085   17.2262 H   0  0  0  0  0  0  0  0  0  0  0  0
   -0.1901    9.6179   17.6830 H   0  0  0  0  0  0  0  0  0  0  0  0
    1.4139    9.4419   16.9951 H   0  0  0  0  0  0  0  0  0  0  0  0
    1.2327    9.5773   18.7432 H   0  0  0  0  0  0  0  0  0  0  0  0
   -1.3973    7.3339   17.7278 H   0  0  0  0  0  0  0  0  0  0  0  0
    0.8492    3.3510   18.2975 H   0  0  0  0  0  0  0  0  0  0  0  0
    2.0864    4.0575   19.3422 H   0  0  0  0  0  0  0  0  0  0  0  0
    2.3632    3.9360   17.5922 H   0  0  0  0  0  0  0  0  0  0  0  0
    2.7414    6.2280   20.9461 H   0  0  0  0  0  0  0  0  0  0  0  0
    4.7485    5.0666   23.2435 H   0  0  0  0  0  0  0  0  0  0  0  0
    2.8996    6.1291   24.5199 H   0  0  0  0  0  0  0  0  0  0  0  0
    2.7923    7.4733   23.3021 H   0  0  0  0  0  0  0  0  0  0  0  0
    5.1885    8.1032   23.7911 H   0  0  0  0  0  0  0  0  0  0  0  0
    5.3023    6.7532   25.0058 H   0  0  0  0  0  0  0  0  0  0  0  0
    6.8994    6.8476   21.8405 H   0  0  0  0  0  0  0  0  0  0  0  0
    7.3304    7.5158   19.5030 H   0  0  0  0  0  0  0  0  0  0  0  0
    3.2681    5.7051   15.0319 H   0  0  0  0  0  0  0  0  0  0  0  0
    2.4918    6.3798   12.7794 H   0  0  0  0  0  0  0  0  0  0  0  0
    2.2881    8.7846   12.1991 H   0  0  0  0  0  0  0  0  0  0  0  0
    3.7242    9.8153   16.1224 H   0  0  0  0  0  0  0  0  0  0  0  0
    2.6200   11.4903   15.6976 H   0  0  0  0  0  0  0  0  0  0  0  0
    4.2928   13.3113   15.3191 H   0  0  0  0  0  0  0  0  0  0  0  0
    4.4139   12.8592   13.6029 H   0  0  0  0  0  0  0  0  0  0  0  0
    4.9947   11.7535   14.8378 H   0  0  0  0  0  0  0  0  0  0  0  0
    1.7144   13.6744   14.9852 H   0  0  0  0  0  0  0  0  0  0  0  0
    0.7550   12.3168   14.3591 H   0  0  0  0  0  0  0  0  0  0  0  0
    1.8479   13.1711   13.2803 H   0  0  0  0  0  0  0  0  0  0  0  0
  1  2  2  0  0  0  0
  2  3  1  0  0  0  0
  2  4  1  0  0  0  0
  4  5  1  0  0  0  0
  4 35  1  0  0  0  0
  4 36  1  0  0  0  0
  5 37  1  0  0  0  0
  5 38  1  0  0  0  0
  6  5  1  6  0  0  0
  6  7  1  0  0  0  0
  6 24  1  0  0  0  0
  7  8  1  0  0  0  0
  7 25  1  1  0  0  0
  8  9  1  1  0  0  0
  8 16  1  0  0  0  0
  9 10  1  6  0  0  0
  9 14  1  0  0  0  0
 10 11  1  6  0  0  0
 10 12  1  0  0  0  0
 11 39  1  0  0  0  0
 11 40  1  0  0  0  0
 11 41  1  0  0  0  0
 12 13  1  0  0  0  0
 12 42  1  0  0  0  0
 13 14  1  0  0  0  0
 14 15  1  1  0  0  0
 15 43  1  0  0  0  0
 15 44  1  0  0  0  0
 15 45  1  0  0  0  0
 16 17  1  1  0  0  0
 16 24  1  0  0  0  0
 17 18  1  0  0  0  0
 17 46  1  0  0  0  0
 18 19  1  6  0  0  0
 18 22  1  0  0  0  0
 19 20  1  0  0  0  0
 19 21  1  0  0  0  0
 19 47  1  0  0  0  0
 20 21  1  0  0  0  0
 20 48  1  0  0  0  0
 20 49  1  0  0  0  0
 21 50  1  0  0  0  0
 21 51  1  0  0  0  0
 22 23  1  0  0  0  0
 22 52  1  0  0  0  0
 23 53  1  0  0  0  0
 24 23  1  6  0  0  0
 25 26  1  1  0  0  0
 25 30  1  0  0  0  0
 26 27  1  0  0  0  0
 26 54  1  0  0  0  0
 27 28  1  0  0  0  0
 27 55  1  0  0  0  0
 28 29  1  0  0  0  0
 28 56  1  0  0  0  0
 29 30  1  0  0  0  0
 29 31  1  6  0  0  0
 30 57  1  0  0  0  0
 31 32  1  0  0  0  0
 32 33  1  0  0  0  0
 32 34  1  0  0  0  0
 32 58  1  0  0  0  0
 33 59  1  0  0  0  0
 33 60  1  0  0  0  0
 33 61  1  0  0  0  0
 34 62  1  0  0  0  0
 34 63  1  0  0  0  0
 34 64  1  0  0  0  0
M  CHG  2   6   1  12   1
M  END
$$$$
