LA6
 OpenBabel04161912063D

 36 35  0  0  0  0  0  0  0  0999 V2000
   -7.4856   12.5018  -21.0909 C   0  0  0  0  0  0  0  0  0  0  0  0
   -7.6517   11.3391  -21.8438 O   0  0  0  0  0  0  0  0  0  0  0  0
   -7.1767   12.1002  -19.6895 C   0  0  0  0  0  0  0  0  0  0  0  0
   -6.1138   11.2577  -19.4265 F   0  0  0  0  0  0  0  0  0  0  0  0
   -7.8913   12.5364  -18.5960 C   0  0  0  0  0  0  0  0  0  0  0  0
   -7.5322   12.0505  -17.2827 C   0  0  0  0  0  0  0  0  0  0  0  0
   -9.0223   13.4891  -18.9065 C   0  0  0  0  0  0  0  0  0  0  0  0
  -10.0723   13.7936  -17.8617 C   0  0  0  0  0  0  0  0  0  0  0  0
   -9.6777   14.3331  -16.5211 C   0  0  0  0  0  0  0  0  0  0  0  0
   -8.6730   15.1346  -16.1320 C   0  0  0  0  0  0  0  0  0  0  0  0
   -7.6491   15.7387  -17.0366 C   0  0  0  0  0  0  0  0  0  0  0  0
   -8.9174   11.1305  -22.8820 P   0  0  2  0  0  0  0  0  0  0  0  0
  -11.5094    9.9518  -22.4142 P   0  0  0  0  0  0  0  0  0  0  0  0
   -8.5547   15.4339  -14.6749 C   0  0  0  0  0  0  0  0  0  0  0  0
   -8.4319    9.9668  -23.7101 O   0  0  0  0  0  0  0  0  0  0  0  0
  -12.3937    9.8790  -21.1619 O   0  0  0  0  0  0  0  0  0  0  0  0
   -9.1719   12.4943  -23.4854 O   0  0  0  0  0  0  0  0  0  0  0  0
  -11.1099    8.5657  -22.8935 O   0  0  0  0  0  0  0  0  0  0  0  0
  -10.1072   10.6789  -21.8640 O   0  0  0  0  0  0  0  0  0  0  0  0
  -12.0983   10.8754  -23.4680 O   0  0  0  0  0  0  0  0  0  0  0  0
   -8.3784   13.1079  -21.1458 H   0  0  0  0  0  0  0  0  0  0  0  0
   -6.6677   13.1433  -21.4531 H   0  0  0  0  0  0  0  0  0  0  0  0
   -8.1762   12.4466  -16.5048 H   0  0  0  0  0  0  0  0  0  0  0  0
   -6.4964   12.3652  -17.0240 H   0  0  0  0  0  0  0  0  0  0  0  0
   -7.5774   10.9635  -17.2139 H   0  0  0  0  0  0  0  0  0  0  0  0
   -9.6025   13.0813  -19.7534 H   0  0  0  0  0  0  0  0  0  0  0  0
   -8.5816   14.4330  -19.2528 H   0  0  0  0  0  0  0  0  0  0  0  0
  -10.6388   12.8652  -17.7040 H   0  0  0  0  0  0  0  0  0  0  0  0
  -10.7683   14.5180  -18.3042 H   0  0  0  0  0  0  0  0  0  0  0  0
  -10.3168   13.9468  -15.7308 H   0  0  0  0  0  0  0  0  0  0  0  0
   -6.9437   16.3585  -16.4712 H   0  0  0  0  0  0  0  0  0  0  0  0
   -8.1287   16.3729  -17.7874 H   0  0  0  0  0  0  0  0  0  0  0  0
   -7.0589   14.9688  -17.5424 H   0  0  0  0  0  0  0  0  0  0  0  0
   -9.3544   14.9295  -14.1117 H   0  0  0  0  0  0  0  0  0  0  0  0
   -8.6582   16.5052  -14.4988 H   0  0  0  0  0  0  0  0  0  0  0  0
   -7.6014   15.0818  -14.2756 H   0  0  0  0  0  0  0  0  0  0  0  0
  1  2  1  0  0  0  0
  1  3  1  0  0  0  0
  1 21  1  0  0  0  0
  1 22  1  0  0  0  0
  3  4  1  0  0  0  0
  3  5  2  0  0  0  0
  5  6  1  0  0  0  0
  5  7  1  0  0  0  0
  6 23  1  0  0  0  0
  6 24  1  0  0  0  0
  6 25  1  0  0  0  0
  7  8  1  0  0  0  0
  7 26  1  0  0  0  0
  7 27  1  0  0  0  0
  8  9  1  0  0  0  0
  8 28  1  0  0  0  0
  8 29  1  0  0  0  0
  9 10  2  0  0  0  0
  9 30  1  0  0  0  0
 10 11  1  0  0  0  0
 10 14  1  0  0  0  0
 11 31  1  0  0  0  0
 11 32  1  0  0  0  0
 11 33  1  0  0  0  0
 12  2  1  1  0  0  0
 12 15  2  0  0  0  0
 12 17  1  0  0  0  0
 12 19  1  0  0  0  0
 13 16  2  0  0  0  0
 13 18  1  0  0  0  0
 13 19  1  0  0  0  0
 13 20  1  0  0  0  0
 14 34  1  0  0  0  0
 14 35  1  0  0  0  0
 14 36  1  0  0  0  0
M  END
$$$$
