LBT
 OpenBabel04161911493D

 45 46  0  0  1  0  0  0  0  0999 V2000
   -5.7584    0.4258    7.3496 C   0  0  2  0  0  0  0  0  0  0  0  0
   -5.3421   -0.9407    6.7845 C   0  0  1  0  0  0  0  0  0  0  0  0
   -4.0178   -0.8324    6.0162 C   0  0  2  0  0  0  0  0  0  0  0  0
   -4.0148    0.3491    5.0307 C   0  0  2  0  0  0  0  0  0  0  0  0
   -4.4358    1.6208    5.7961 C   0  0  1  0  0  0  0  0  0  0  0  0
   -4.4505    2.8676    4.9102 C   0  0  0  0  0  0  0  0  0  0  0  0
   -7.0752    0.2989    7.8978 O   0  0  0  0  0  0  0  0  0  0  0  0
   -5.1616   -1.8930    7.8541 O   0  0  0  0  0  0  0  0  0  0  0  0
   -3.7596   -2.0977    5.3819 O   0  0  0  0  0  0  0  0  0  0  0  0
   -4.9004    0.0595    3.9432 O   0  0  0  0  0  0  0  0  0  0  0  0
   -5.7521    1.4471    6.3456 O   0  0  0  0  0  0  0  0  0  0  0  0
   -4.9019    3.9950    5.6595 O   0  0  0  0  0  0  0  0  0  0  0  0
   -9.3988    2.6269   10.4698 C   0  0  1  0  0  0  0  0  0  0  0  0
   -9.5228    2.9449    8.9745 C   0  0  1  0  0  0  0  0  0  0  0  0
   -8.9228    1.8106    8.1343 C   0  0  2  0  0  0  0  0  0  0  0  0
   -7.5065    1.4519    8.6265 C   0  0  1  0  0  0  0  0  0  0  0  0
   -7.5647    1.1496   10.1240 C   0  0  1  0  0  0  0  0  0  0  0  0
   -6.1855    0.7864   10.7067 C   0  0  0  0  0  0  0  0  0  0  0  0
  -10.3047    1.5832   10.8134 O   0  0  0  0  0  0  0  0  0  0  0  0
  -10.9128    3.1535    8.6596 O   0  0  0  0  0  0  0  0  0  0  0  0
   -8.9193    2.1884    6.7499 O   0  0  0  0  0  0  0  0  0  0  0  0
   -8.0760    2.2831   10.8552 O   0  0  0  0  0  0  0  0  0  0  0  0
   -5.2318    1.8167   10.4597 O   0  0  0  0  0  0  0  0  0  0  0  0
   -5.0697    0.7086    8.1571 H   0  0  0  0  0  0  0  0  0  0  0  0
   -6.1348   -1.3387    6.1395 H   0  0  0  0  0  0  0  0  0  0  0  0
   -3.2012   -0.6995    6.7371 H   0  0  0  0  0  0  0  0  0  0  0  0
   -3.0150    0.4677    4.6003 H   0  0  0  0  0  0  0  0  0  0  0  0
   -3.7446    1.8127    6.6291 H   0  0  0  0  0  0  0  0  0  0  0  0
   -5.1280    2.7616    4.0583 H   0  0  0  0  0  0  0  0  0  0  0  0
   -3.4463    3.0882    4.5403 H   0  0  0  0  0  0  0  0  0  0  0  0
   -4.9415   -2.7305    7.4014 H   0  0  0  0  0  0  0  0  0  0  0  0
   -2.9877   -1.9907    4.8010 H   0  0  0  0  0  0  0  0  0  0  0  0
   -4.9346    0.8044    3.3297 H   0  0  0  0  0  0  0  0  0  0  0  0
   -5.7833    3.7454    5.9953 H   0  0  0  0  0  0  0  0  0  0  0  0
   -9.6895    3.5122   11.0508 H   0  0  0  0  0  0  0  0  0  0  0  0
   -8.9983    3.8768    8.7382 H   0  0  0  0  0  0  0  0  0  0  0  0
   -9.5631    0.9181    8.1835 H   0  0  0  0  0  0  0  0  0  0  0  0
   -6.8520    2.3154    8.4318 H   0  0  0  0  0  0  0  0  0  0  0  0
   -8.2179    0.2798   10.3168 H   0  0  0  0  0  0  0  0  0  0  0  0
   -5.8096   -0.1399   10.2511 H   0  0  0  0  0  0  0  0  0  0  0  0
   -6.2551    0.6372   11.7861 H   0  0  0  0  0  0  0  0  0  0  0  0
  -11.1921    1.9665   10.7056 H   0  0  0  0  0  0  0  0  0  0  0  0
  -11.3322    2.2737    8.6195 H   0  0  0  0  0  0  0  0  0  0  0  0
   -8.2375    2.8679    6.6250 H   0  0  0  0  0  0  0  0  0  0  0  0
   -4.4168    1.5526   10.9160 H   0  0  0  0  0  0  0  0  0  0  0  0
  1  2  1  0  0  0  0
  1  7  1  0  0  0  0
  1 11  1  0  0  0  0
  1 24  1  1  0  0  0
  2  3  1  0  0  0  0
  2  8  1  0  0  0  0
  2 25  1  6  0  0  0
  3  4  1  0  0  0  0
  3  9  1  0  0  0  0
  3 26  1  1  0  0  0
  4  5  1  0  0  0  0
  4 10  1  0  0  0  0
  4 27  1  6  0  0  0
  5  6  1  0  0  0  0
  5 11  1  0  0  0  0
  5 28  1  1  0  0  0
  6 12  1  0  0  0  0
  6 29  1  0  0  0  0
  6 30  1  0  0  0  0
  7 16  1  0  0  0  0
  8 31  1  0  0  0  0
  9 32  1  0  0  0  0
 10 33  1  0  0  0  0
 12 34  1  0  0  0  0
 13 14  1  0  0  0  0
 13 19  1  0  0  0  0
 13 22  1  0  0  0  0
 13 35  1  1  0  0  0
 14 15  1  0  0  0  0
 14 20  1  0  0  0  0
 14 36  1  6  0  0  0
 15 16  1  0  0  0  0
 15 21  1  0  0  0  0
 15 37  1  1  0  0  0
 16 17  1  0  0  0  0
 16 38  1  6  0  0  0
 17 18  1  0  0  0  0
 17 22  1  0  0  0  0
 17 39  1  1  0  0  0
 18 23  1  0  0  0  0
 18 40  1  0  0  0  0
 18 41  1  0  0  0  0
 19 42  1  0  0  0  0
 20 43  1  0  0  0  0
 21 44  1  0  0  0  0
 23 45  1  0  0  0  0
M  END
$$$$
