LU2
 OpenBabel04161911303D

 30 32  0  0  0  0  0  0  0  0999 V2000
   18.5123  -44.2648  -37.2685 C   0  0  0  0  0  0  0  0  0  0  0  0
   17.6404  -46.3186  -36.3227 O   0  0  0  0  0  0  0  0  0  0  0  0
   18.2903  -45.1015  -36.2002 C   0  0  0  0  0  0  0  0  0  0  0  0
   19.6525  -43.3486  -33.3844 O   0  0  0  0  0  0  0  0  0  0  0  0
   18.6955  -44.7832  -34.8962 C   0  0  0  0  0  0  0  0  0  0  0  0
   20.2974  -40.8494  -34.3642 O   0  0  0  0  0  0  0  0  0  0  0  0
   19.3110  -43.5765  -34.5891 C   0  0  0  0  0  0  0  0  0  0  0  0
   19.3291  -42.1119  -38.1116 O   0  3  0  0  0  0  0  0  0  0  0  0
   19.4724  -42.7252  -35.7134 C   0  0  0  0  0  0  0  0  0  0  0  0
   21.3054  -38.7402  -41.8772 O   0  0  0  0  0  0  0  0  0  0  0  0
   19.1203  -43.0158  -37.0400 C   0  0  0  0  0  0  0  0  0  0  0  0
   20.3918  -36.1967  -41.0642 O   0  0  0  0  0  0  0  0  0  0  0  0
   20.0227  -41.3685  -35.4402 C   0  0  0  0  0  0  0  0  0  0  0  0
   20.1067  -40.4703  -36.5470 C   0  0  0  0  0  0  0  0  0  0  0  0
   19.8020  -40.8279  -37.7700 C   0  0  0  0  0  0  0  0  0  0  0  0
   19.9248  -39.7309  -38.7473 C   0  0  0  0  0  0  0  0  0  0  0  0
   20.5716  -39.8449  -39.9144 C   0  0  0  0  0  0  0  0  0  0  0  0
   20.7799  -38.6421  -40.7838 C   0  0  0  0  0  0  0  0  0  0  0  0
   20.2954  -37.3179  -40.2709 C   0  0  0  0  0  0  0  0  0  0  0  0
   19.6853  -37.2160  -39.0911 C   0  0  0  0  0  0  0  0  0  0  0  0
   19.4564  -38.3675  -38.2206 C   0  0  0  0  0  0  0  0  0  0  0  0
   18.1633  -44.5750  -38.2612 H   0  0  0  0  0  0  0  0  0  0  0  0
   18.2870  -46.9029  -36.7482 H   0  0  0  0  0  0  0  0  0  0  0  0
   18.5180  -45.4673  -34.0614 H   0  0  0  0  0  0  0  0  0  0  0  0
   20.1592  -36.5159  -41.9608 H   0  0  0  0  0  0  0  0  0  0  0  0
   20.4466  -39.5103  -36.2002 H   0  0  0  0  0  0  0  0  0  0  0  0
   21.0095  -40.7739  -40.2698 H   0  0  0  0  0  0  0  0  0  0  0  0
   19.3289  -36.2457  -38.7401 H   0  0  0  0  0  0  0  0  0  0  0  0
   19.9984  -38.0781  -37.3139 H   0  0  0  0  0  0  0  0  0  0  0  0
   18.3873  -38.4488  -37.9699 H   0  0  0  0  0  0  0  0  0  0  0  0
  1  3  2  0  0  0  0
  1 11  1  0  0  0  0
  1 22  1  0  0  0  0
  2  3  1  0  0  0  0
  2 23  1  0  0  0  0
  3  5  1  0  0  0  0
  4  7  1  0  0  0  0
  5  7  2  0  0  0  0
  5 24  1  0  0  0  0
  6 13  2  0  0  0  0
  7  9  1  0  0  0  0
  8 11  1  0  0  0  0
  8 15  1  0  0  0  0
  9 11  2  0  0  0  0
  9 13  1  0  0  0  0
 10 18  2  0  0  0  0
 12 19  1  0  0  0  0
 12 25  1  0  0  0  0
 13 14  1  0  0  0  0
 14 15  2  0  0  0  0
 14 26  1  0  0  0  0
 15 16  1  0  0  0  0
 16 17  2  0  0  0  0
 16 21  1  0  0  0  0
 17 18  1  0  0  0  0
 17 27  1  0  0  0  0
 18 19  1  0  0  0  0
 19 20  2  0  0  0  0
 20 21  1  0  0  0  0
 20 28  1  0  0  0  0
 21 29  1  0  0  0  0
 21 30  1  0  0  0  0
M  CHG  1   8   1
M  END
$$$$
