MFU
 OpenBabel04161911213D

 26 26  0  0  1  0  0  0  0  0999 V2000
   -2.4970   15.3278   -8.7370 C   0  0  2  0  0  0  0  0  0  0  0  0
   -2.6926   15.5847  -10.2486 C   0  0  2  0  0  0  0  0  0  0  0  0
   -4.0632   16.2176  -10.5406 C   0  0  1  0  0  0  0  0  0  0  0  0
   -4.3316   17.4214   -9.6265 C   0  0  1  0  0  0  0  0  0  0  0  0
   -4.1148   16.9894   -8.1653 C   0  0  2  0  0  0  0  0  0  0  0  0
   -4.3278   18.1260   -7.1766 C   0  0  0  0  0  0  0  0  0  0  0  0
   -3.2944   14.2135   -8.3063 O   0  0  0  0  0  0  0  0  0  0  0  0
   -2.5292   14.3671  -10.9979 O   0  0  0  0  0  0  0  0  0  0  0  0
   -4.1346   16.6419  -11.9121 O   0  0  0  0  0  0  0  0  0  0  0  0
   -3.4450   18.4802  -10.0159 O   0  0  0  0  0  0  0  0  0  0  0  0
   -2.7827   16.4948   -7.9632 O   0  0  0  0  0  0  0  0  0  0  0  0
   -2.8274   13.6972   -7.0591 C   0  0  0  0  0  0  0  0  0  0  0  0
   -1.4414   15.0703   -8.5843 H   0  0  0  0  0  0  0  0  0  0  0  0
   -1.9105   16.2676  -10.5955 H   0  0  0  0  0  0  0  0  0  0  0  0
   -4.8492   15.4685  -10.4089 H   0  0  0  0  0  0  0  0  0  0  0  0
   -5.3516   17.7858   -9.7876 H   0  0  0  0  0  0  0  0  0  0  0  0
   -4.8290   16.1952   -7.9170 H   0  0  0  0  0  0  0  0  0  0  0  0
   -4.1676   17.7630   -6.1551 H   0  0  0  0  0  0  0  0  0  0  0  0
   -5.3440   18.5261   -7.2466 H   0  0  0  0  0  0  0  0  0  0  0  0
   -3.6124   18.9409   -7.3290 H   0  0  0  0  0  0  0  0  0  0  0  0
   -3.2450   13.7703  -10.7100 H   0  0  0  0  0  0  0  0  0  0  0  0
   -3.4696   17.3465  -12.0040 H   0  0  0  0  0  0  0  0  0  0  0  0
   -3.6831   19.2745   -9.5022 H   0  0  0  0  0  0  0  0  0  0  0  0
   -3.4684   12.8601   -6.7652 H   0  0  0  0  0  0  0  0  0  0  0  0
   -2.8758   14.4598   -6.2756 H   0  0  0  0  0  0  0  0  0  0  0  0
   -1.8027   13.3235   -7.1549 H   0  0  0  0  0  0  0  0  0  0  0  0
  1  2  1  0  0  0  0
  1  7  1  0  0  0  0
  1 11  1  0  0  0  0
  1 13  1  1  0  0  0
  2  3  1  0  0  0  0
  2  8  1  0  0  0  0
  2 14  1  6  0  0  0
  3  4  1  0  0  0  0
  3  9  1  0  0  0  0
  3 15  1  1  0  0  0
  4  5  1  0  0  0  0
  4 10  1  0  0  0  0
  4 16  1  6  0  0  0
  5  6  1  0  0  0  0
  5 11  1  0  0  0  0
  5 17  1  1  0  0  0
  6 18  1  0  0  0  0
  6 19  1  0  0  0  0
  6 20  1  0  0  0  0
  7 12  1  0  0  0  0
  8 21  1  0  0  0  0
  9 22  1  0  0  0  0
 10 23  1  0  0  0  0
 12 24  1  0  0  0  0
 12 25  1  0  0  0  0
 12 26  1  0  0  0  0
M  END
$$$$
