MO0
 OpenBabel04161911003D

 43 42  0  0  1  0  0  0  0  0999 V2000
   83.6494   27.8505    5.5202 O   0  0  0  0  0  0  0  0  0  0  0  0
   82.4766   28.1099    4.7574 C   0  0  0  0  0  0  0  0  0  0  0  0
   82.5101   27.4820    3.3601 C   0  0  1  0  0  0  0  0  0  0  0  0
   83.1651   28.3590    2.4404 O   0  0  0  0  0  0  0  0  0  0  0  0
   83.1558   26.0920    3.3381 C   0  0  1  0  0  0  0  0  0  0  0  0
   82.4422   25.1966    4.1965 O   0  0  0  0  0  0  0  0  0  0  0  0
   83.2514   25.5081    1.9129 C   0  0  2  0  0  0  0  0  0  0  0  0
   81.9551   25.3102    1.3553 O   0  0  0  0  0  0  0  0  0  0  0  0
   84.0057   24.1771    1.9552 C   0  0  2  0  0  0  0  0  0  0  0  0
   85.3324   24.4289    2.4248 O   0  0  0  0  0  0  0  0  0  0  0  0
   84.0624   23.4984    0.5835 C   0  0  0  0  0  0  0  0  0  0  0  0
   83.7371   22.0550    0.7881 N   0  3  0  0  0  0  0  0  0  0  0  0
   83.9238   21.2235   -0.4737 C   0  0  2  0  0  0  0  0  0  0  0  0
   82.5836   20.9712   -1.2280 C   0  0  0  0  0  0  0  0  0  0  0  0
   81.6165   21.5836   -0.6658 O   0  0  0  0  0  0  0  0  0  0  0  0
   84.6527   19.9196   -0.1004 C   0  0  0  0  0  0  0  0  0  0  0  0
   83.7323   18.8686    0.5057 C   0  0  0  0  0  0  0  0  0  0  0  0
   84.4791   17.7479    1.1856 C   0  0  0  0  0  0  0  0  0  0  0  0
   84.7124   16.6653    0.6679 O   0  0  0  0  0  0  0  0  0  0  0  0
   84.9315   18.0105    2.4386 N   0  0  0  0  0  0  0  0  0  0  0  0
   82.6411   20.1852   -2.1821 O   0  0  0  0  0  0  0  0  0  0  0  0
   84.4218   28.2229    5.0620 H   0  0  0  0  0  0  0  0  0  0  0  0
   82.3668   29.1910    4.6689 H   0  0  0  0  0  0  0  0  0  0  0  0
   81.6281   27.6980    5.3060 H   0  0  0  0  0  0  0  0  0  0  0  0
   81.4726   27.4017    3.0227 H   0  0  0  0  0  0  0  0  0  0  0  0
   84.0571   28.5544    2.7760 H   0  0  0  0  0  0  0  0  0  0  0  0
   84.1797   26.1732    3.7209 H   0  0  0  0  0  0  0  0  0  0  0  0
   81.5102   25.1822    3.9121 H   0  0  0  0  0  0  0  0  0  0  0  0
   83.8096   26.1966    1.2724 H   0  0  0  0  0  0  0  0  0  0  0  0
   81.5599   26.1936    1.2205 H   0  0  0  0  0  0  0  0  0  0  0  0
   83.5115   23.5037    2.6658 H   0  0  0  0  0  0  0  0  0  0  0  0
   85.8363   23.5830    2.4678 H   0  0  0  0  0  0  0  0  0  0  0  0
   85.0822   23.5197    0.1754 H   0  0  0  0  0  0  0  0  0  0  0  0
   83.3591   23.9053   -0.1471 H   0  0  0  0  0  0  0  0  0  0  0  0
   84.2149   21.6498    1.5889 H   0  0  0  0  0  0  0  0  0  0  0  0
   84.5774   21.7937   -1.1209 H   0  0  0  0  0  0  0  0  0  0  0  0
   85.4930   20.1375    0.5734 H   0  0  0  0  0  0  0  0  0  0  0  0
   85.0892   19.5085   -1.0204 H   0  0  0  0  0  0  0  0  0  0  0  0
   83.1380   18.4000   -0.2803 H   0  0  0  0  0  0  0  0  0  0  0  0
   83.0486   19.3420    1.2176 H   0  0  0  0  0  0  0  0  0  0  0  0
   85.4061   17.2435    2.9104 H   0  0  0  0  0  0  0  0  0  0  0  0
   84.7546   18.8621    2.9424 H   0  0  0  0  0  0  0  0  0  0  0  0
   82.6971   22.0031    0.9494 H   0  0  0  0  0  0  0  0  0  0  0  0
  1  2  1  0  0  0  0
  1 22  1  0  0  0  0
  2  3  1  0  0  0  0
  2 23  1  0  0  0  0
  2 24  1  0  0  0  0
  3  4  1  0  0  0  0
  3  5  1  0  0  0  0
  3 25  1  6  0  0  0
  4 26  1  0  0  0  0
  5  6  1  0  0  0  0
  5  7  1  0  0  0  0
  5 27  1  1  0  0  0
  6 28  1  0  0  0  0
  7  8  1  0  0  0  0
  7  9  1  0  0  0  0
  7 29  1  6  0  0  0
  8 30  1  0  0  0  0
  9 10  1  0  0  0  0
  9 11  1  0  0  0  0
  9 31  1  1  0  0  0
 10 32  1  0  0  0  0
 11 12  1  0  0  0  0
 11 33  1  0  0  0  0
 11 34  1  0  0  0  0
 12 13  1  0  0  0  0
 12 35  1  0  0  0  0
 12 43  1  0  0  0  0
 13 14  1  0  0  0  0
 13 16  1  0  0  0  0
 13 36  1  6  0  0  0
 14 15  2  0  0  0  0
 14 21  1  0  0  0  0
 16 17  1  0  0  0  0
 16 37  1  0  0  0  0
 16 38  1  0  0  0  0
 17 18  1  0  0  0  0
 17 39  1  0  0  0  0
 17 40  1  0  0  0  0
 18 19  2  0  0  0  0
 18 20  1  0  0  0  0
 20 41  1  0  0  0  0
 20 42  1  0  0  0  0
M  CHG  1  12   1
M  END
$$$$
