MS2
 OpenBabel04161912253D

 37 38  0  0  1  0  0  0  0  0999 V2000
   27.1709   12.3387   29.1593 C   0  0  0  0  0  0  0  0  0  0  0  0
   31.1695    8.8459   35.5349 C   0  0  0  0  0  0  0  0  0  0  0  0
   31.1977    9.2010   34.1878 C   0  0  0  0  0  0  0  0  0  0  0  0
   30.6506   10.4269   33.7877 C   0  0  0  0  0  0  0  0  0  0  0  0
   30.0627   11.3077   34.7185 C   0  0  0  0  0  0  0  0  0  0  0  0
   30.0393   10.9262   36.0709 C   0  0  0  0  0  0  0  0  0  0  0  0
   30.5939    9.7011   36.4786 C   0  0  0  0  0  0  0  0  0  0  0  0
   29.4830   12.6430   34.2600 C   0  0  1  0  0  0  0  0  0  0  0  0
   30.5776   13.6866   34.0543 C   0  0  0  0  0  0  0  0  0  0  0  0
   28.7621   12.4682   33.0118 N   0  0  0  0  0  0  0  0  0  0  0  0
   27.4307   12.1662   33.0531 C   0  0  0  0  0  0  0  0  0  0  0  0
   26.7938   12.0740   34.0702 O   0  0  0  0  0  0  0  0  0  0  0  0
   26.8099   11.9144   31.7419 C   0  0  1  0  0  0  0  0  0  0  0  0
   25.6639   12.7615   31.2695 C   0  0  0  0  0  0  0  0  0  0  0  0
   27.0048   12.8712   30.5494 C   0  0  2  0  0  0  0  0  0  0  0  0
   28.2839    9.7736   31.1985 O   0  0  0  0  0  0  0  0  0  0  0  0
   26.8253   10.1100   31.2844 S   0  0  1  0  0  0  0  0  0  0  0  0
   26.2541    9.4260   32.8616 C   0  0  0  0  0  0  0  0  0  0  0  0
   31.9184    7.1928   36.0901 Br  0  0  0  0  0  0  0  0  0  0  0  0
   25.1732   14.1803   32.2371 Cl  0  0  0  0  0  0  0  0  0  0  0  0
   24.2654   12.0164   30.4556 Cl  0  0  0  0  0  0  0  0  0  0  0  0
   27.3030   13.1439   28.4270 H   0  0  0  0  0  0  0  0  0  0  0  0
   26.2959   11.7562   28.8567 H   0  0  0  0  0  0  0  0  0  0  0  0
   28.0451   11.6783   29.1016 H   0  0  0  0  0  0  0  0  0  0  0  0
   31.6401    8.5357   33.4478 H   0  0  0  0  0  0  0  0  0  0  0  0
   30.6745   10.6966   32.7318 H   0  0  0  0  0  0  0  0  0  0  0  0
   29.5875   11.5791   36.8179 H   0  0  0  0  0  0  0  0  0  0  0  0
   30.5731    9.4210   37.5306 H   0  0  0  0  0  0  0  0  0  0  0  0
   28.7629   13.0285   34.9985 H   0  0  0  0  0  0  0  0  0  0  0  0
   31.1075   13.8692   34.9948 H   0  0  0  0  0  0  0  0  0  0  0  0
   30.1631   14.6425   33.6995 H   0  0  0  0  0  0  0  0  0  0  0  0
   31.3041   13.3391   33.3082 H   0  0  0  0  0  0  0  0  0  0  0  0
   29.2589   12.4647   32.1312 H   0  0  0  0  0  0  0  0  0  0  0  0
   27.6103   13.7710   30.7069 H   0  0  0  0  0  0  0  0  0  0  0  0
   26.2181    8.3364   32.7688 H   0  0  0  0  0  0  0  0  0  0  0  0
   25.2605    9.8109   33.0837 H   0  0  0  0  0  0  0  0  0  0  0  0
   26.9543    9.6835   33.6571 H   0  0  0  0  0  0  0  0  0  0  0  0
  1 15  1  0  0  0  0
  1 22  1  0  0  0  0
  1 23  1  0  0  0  0
  1 24  1  0  0  0  0
  2 19  1  0  0  0  0
  2  3  1  0  0  0  0
  2  7  2  0  0  0  0
  3  4  2  0  0  0  0
  3 25  1  0  0  0  0
  4  5  1  0  0  0  0
  4 26  1  0  0  0  0
  5  8  1  0  0  0  0
  5  6  2  0  0  0  0
  6  7  1  0  0  0  0
  6 27  1  0  0  0  0
  7 28  1  0  0  0  0
  8 10  1  0  0  0  0
  8  9  1  0  0  0  0
  8 29  1  1  0  0  0
  9 30  1  0  0  0  0
  9 31  1  0  0  0  0
  9 32  1  0  0  0  0
 10 11  1  0  0  0  0
 10 33  1  0  0  0  0
 11 12  2  0  0  0  0
 13 15  1  0  0  0  0
 13 17  1  0  0  0  0
 13 14  1  0  0  0  0
 13 11  1  1  0  0  0
 14 21  1  0  0  0  0
 14 20  1  0  0  0  0
 14 15  1  0  0  0  0
 15 34  1  1  0  0  0
 17 16  2  1  0  0  0
 17 18  1  0  0  0  0
 18 35  1  0  0  0  0
 18 36  1  0  0  0  0
 18 37  1  0  0  0  0
M  END
$$$$
