MTX
 OpenBabel04161910453D

 53 55  0  0  1  0  0  0  0  0999 V2000
  -14.0786   17.8900   30.3251 N   0  0  0  0  0  0  0  0  0  0  0  0
  -13.8316   16.6964   29.7465 C   0  0  0  0  0  0  0  0  0  0  0  0
  -13.6334   15.6051   30.5497 N   0  0  0  0  0  0  0  0  0  0  0  0
  -13.7310   16.4680   28.4288 N   0  0  0  0  0  0  0  0  0  0  0  0
  -13.8867   17.5347   27.6444 C   0  0  0  0  0  0  0  0  0  0  0  0
  -13.6968   17.4084   26.2619 N   0  0  0  0  0  0  0  0  0  0  0  0
  -14.0959   18.7953   28.1587 C   0  0  0  0  0  0  0  0  0  0  0  0
  -14.1364   19.7882   27.2858 N   0  0  0  0  0  0  0  0  0  0  0  0
  -14.3994   21.0102   27.7347 C   0  0  0  0  0  0  0  0  0  0  0  0
  -14.5524   21.2471   29.0870 C   0  0  0  0  0  0  0  0  0  0  0  0
  -14.4442   20.2257   30.0045 N   0  0  0  0  0  0  0  0  0  0  0  0
  -14.2266   18.9628   29.5370 C   0  0  0  0  0  0  0  0  0  0  0  0
  -14.7044   21.9395   26.6181 C   0  0  0  0  0  0  0  0  0  0  0  0
  -16.1196   21.8136   26.2219 N   0  0  0  0  0  0  0  0  0  0  0  0
  -16.9762   22.7532   26.9173 C   0  0  0  0  0  0  0  0  0  0  0  0
  -18.4776   18.6598   24.5610 C   0  0  0  0  0  0  0  0  0  0  0  0
  -17.4813   19.2795   23.7878 C   0  0  0  0  0  0  0  0  0  0  0  0
  -16.6319   20.2744   24.3733 C   0  0  0  0  0  0  0  0  0  0  0  0
  -16.7560   20.6719   25.7142 C   0  0  0  0  0  0  0  0  0  0  0  0
  -17.7347   19.9816   26.4647 C   0  0  0  0  0  0  0  0  0  0  0  0
  -18.5816   19.0078   25.8932 C   0  0  0  0  0  0  0  0  0  0  0  0
  -19.4655   17.6281   24.0281 C   0  0  0  0  0  0  0  0  0  0  0  0
  -19.9721   16.8298   24.8384 O   0  0  0  0  0  0  0  0  0  0  0  0
  -19.7647   17.6587   22.7007 N   0  0  0  0  0  0  0  0  0  0  0  0
  -20.6249   16.6629   22.0069 C   0  0  2  0  0  0  0  0  0  0  0  0
  -20.0587   16.2313   20.6141 C   0  0  0  0  0  0  0  0  0  0  0  0
  -20.6873   15.3298   19.9843 O   0  0  0  0  0  0  0  0  0  0  0  0
  -18.9586   16.7992   20.2798 O   0  0  0  0  0  0  0  0  0  0  0  0
  -22.0922   17.1332   21.9299 C   0  0  0  0  0  0  0  0  0  0  0  0
  -22.3755   18.2816   20.9573 C   0  0  0  0  0  0  0  0  0  0  0  0
  -23.8820   18.6053   20.9055 C   0  0  0  0  0  0  0  0  0  0  0  0
  -24.5300   18.1068   19.9381 O   0  0  0  0  0  0  0  0  0  0  0  0
  -24.2996   19.3878   21.8153 O   0  0  0  0  0  0  0  0  0  0  0  0
  -13.7537   15.7058   31.5396 H   0  0  0  0  0  0  0  0  0  0  0  0
  -13.5131   14.7132   30.0992 H   0  0  0  0  0  0  0  0  0  0  0  0
  -13.9441   18.2306   25.7100 H   0  0  0  0  0  0  0  0  0  0  0  0
  -13.6507   16.5044   25.8240 H   0  0  0  0  0  0  0  0  0  0  0  0
  -14.8001   22.2353   29.4889 H   0  0  0  0  0  0  0  0  0  0  0  0
  -14.0309   21.7191   25.7802 H   0  0  0  0  0  0  0  0  0  0  0  0
  -14.4667   22.9709   26.9214 H   0  0  0  0  0  0  0  0  0  0  0  0
  -18.0325   22.5726   26.7248 H   0  0  0  0  0  0  0  0  0  0  0  0
  -16.7142   23.7401   26.5318 H   0  0  0  0  0  0  0  0  0  0  0  0
  -16.8040   22.7533   28.0013 H   0  0  0  0  0  0  0  0  0  0  0  0
  -17.3613   19.0338   22.7372 H   0  0  0  0  0  0  0  0  0  0  0  0
  -15.9232   20.7871   23.7223 H   0  0  0  0  0  0  0  0  0  0  0  0
  -17.8991   20.2286   27.5026 H   0  0  0  0  0  0  0  0  0  0  0  0
  -19.3562   18.5419   26.5167 H   0  0  0  0  0  0  0  0  0  0  0  0
  -19.2906   18.2777   22.0494 H   0  0  0  0  0  0  0  0  0  0  0  0
  -20.6128   15.7576   22.6273 H   0  0  0  0  0  0  0  0  0  0  0  0
  -22.4222   17.4352   22.9327 H   0  0  0  0  0  0  0  0  0  0  0  0
  -22.7162   16.2800   21.6394 H   0  0  0  0  0  0  0  0  0  0  0  0
  -22.0333   18.0168   19.9506 H   0  0  0  0  0  0  0  0  0  0  0  0
  -21.8200   19.1756   21.2624 H   0  0  0  0  0  0  0  0  0  0  0  0
  1  2  2  0  0  0  0
  1 12  1  0  0  0  0
  2  3  1  0  0  0  0
  2  4  1  0  0  0  0
  3 34  1  0  0  0  0
  3 35  1  0  0  0  0
  4  5  2  0  0  0  0
  5  6  1  0  0  0  0
  5  7  1  0  0  0  0
  6 36  1  0  0  0  0
  6 37  1  0  0  0  0
  7  8  2  0  0  0  0
  7 12  1  0  0  0  0
  8  9  1  0  0  0  0
  9 10  2  0  0  0  0
  9 13  1  0  0  0  0
 10 11  1  0  0  0  0
 10 38  1  0  0  0  0
 11 12  2  0  0  0  0
 13 14  1  0  0  0  0
 13 39  1  0  0  0  0
 13 40  1  0  0  0  0
 14 15  1  0  0  0  0
 14 19  1  0  0  0  0
 15 41  1  0  0  0  0
 15 42  1  0  0  0  0
 15 43  1  0  0  0  0
 16 17  2  0  0  0  0
 16 21  1  0  0  0  0
 16 22  1  0  0  0  0
 17 18  1  0  0  0  0
 17 44  1  0  0  0  0
 18 19  2  0  0  0  0
 18 45  1  0  0  0  0
 19 20  1  0  0  0  0
 20 21  2  0  0  0  0
 20 46  1  0  0  0  0
 21 47  1  0  0  0  0
 22 23  2  0  0  0  0
 22 24  1  0  0  0  0
 24 25  1  0  0  0  0
 24 48  1  0  0  0  0
 25 26  1  0  0  0  0
 25 29  1  0  0  0  0
 25 49  1  1  0  0  0
 26 27  2  0  0  0  0
 26 28  1  0  0  0  0
 29 30  1  0  0  0  0
 29 50  1  0  0  0  0
 29 51  1  0  0  0  0
 30 31  1  0  0  0  0
 30 52  1  0  0  0  0
 30 53  1  0  0  0  0
 31 32  2  0  0  0  0
 31 33  1  0  0  0  0
M  END
$$$$
