NIU
 OpenBabel04161912253D

 43 45  0  0  1  0  0  0  0  0999 V2000
   -0.3758   18.2289   20.7423 C   0  0  0  0  0  0  0  0  0  0  0  0
   -1.5684   17.6753   21.3405 C   0  0  0  0  0  0  0  0  0  0  0  0
   -1.7774   16.4420   21.2582 O   0  0  0  0  0  0  0  0  0  0  0  0
   -2.4754   18.4204   21.9881 O   0  3  0  0  0  0  0  0  0  0  0  0
   -2.2479   19.8173   22.0681 C   0  0  0  0  0  0  0  0  0  0  0  0
   -1.1461   20.3817   21.5200 C   0  0  0  0  0  0  0  0  0  0  0  0
   -0.1209   19.5627   20.8235 C   0  0  0  0  0  0  0  0  0  0  0  0
    0.8701   20.1917   20.3739 O   0  0  0  0  0  0  0  0  0  0  0  0
    0.0112   16.6305   18.7514 C   0  0  0  0  0  0  0  0  0  0  0  0
   -0.3267   17.3330   17.5826 C   0  0  0  0  0  0  0  0  0  0  0  0
   -0.8470   16.6545   16.4710 C   0  0  0  0  0  0  0  0  0  0  0  0
   -1.0426   15.2718   16.5216 C   0  0  0  0  0  0  0  0  0  0  0  0
   -0.7163   14.5666   17.6592 C   0  0  0  0  0  0  0  0  0  0  0  0
   -0.1984   15.2495   18.7513 C   0  0  0  0  0  0  0  0  0  0  0  0
    0.6059   17.3812   19.9489 C   0  0  2  0  0  0  0  0  0  0  0  0
    1.6421   16.5942   20.7893 C   0  0  0  0  0  0  0  0  0  0  0  0
    1.1291   15.4621   21.6451 C   0  0  0  0  0  0  0  0  0  0  0  0
   -3.3451   20.5329   22.7943 C   0  0  0  0  0  0  0  0  0  0  0  0
   -3.9810   21.7480   22.1058 C   0  0  0  0  0  0  0  0  0  0  0  0
   -3.4053   22.1251   20.7475 C   0  0  0  0  0  0  0  0  0  0  0  0
   -1.9797   22.6856   20.7766 C   0  0  0  0  0  0  0  0  0  0  0  0
   -0.9659   21.8946   21.6125 C   0  0  0  0  0  0  0  0  0  0  0  0
   -0.1878   18.4168   17.5384 H   0  0  0  0  0  0  0  0  0  0  0  0
   -1.0981   17.2042   15.5683 H   0  0  0  0  0  0  0  0  0  0  0  0
   -1.4558   14.7461   15.6663 H   0  0  0  0  0  0  0  0  0  0  0  0
   -0.8592   13.4867   17.7163 H   0  0  0  0  0  0  0  0  0  0  0  0
    0.0056   14.6440   19.5975 H   0  0  0  0  0  0  0  0  0  0  0  0
    1.2669   18.1017   19.4451 H   0  0  0  0  0  0  0  0  0  0  0  0
    2.1427   17.2959   21.4697 H   0  0  0  0  0  0  0  0  0  0  0  0
    2.4043   16.1940   20.1027 H   0  0  0  0  0  0  0  0  0  0  0  0
    1.9378   14.9620   22.1663 H   0  0  0  0  0  0  0  0  0  0  0  0
    0.6834   14.6707   21.0771 H   0  0  0  0  0  0  0  0  0  0  0  0
    0.3812   15.7989   22.3504 H   0  0  0  0  0  0  0  0  0  0  0  0
   -2.9367   20.8747   23.7536 H   0  0  0  0  0  0  0  0  0  0  0  0
   -4.1600   19.8290   23.0304 H   0  0  0  0  0  0  0  0  0  0  0  0
   -5.0574   21.5410   21.9828 H   0  0  0  0  0  0  0  0  0  0  0  0
   -3.8958   22.6096   22.7820 H   0  0  0  0  0  0  0  0  0  0  0  0
   -3.4231   21.2391   20.1031 H   0  0  0  0  0  0  0  0  0  0  0  0
   -4.0635   22.8769   20.2925 H   0  0  0  0  0  0  0  0  0  0  0  0
   -1.6110   22.7324   19.7414 H   0  0  0  0  0  0  0  0  0  0  0  0
   -2.0163   23.7171   21.1570 H   0  0  0  0  0  0  0  0  0  0  0  0
    0.0424   22.1897   21.2994 H   0  0  0  0  0  0  0  0  0  0  0  0
   -1.0618   22.2034   22.6642 H   0  0  0  0  0  0  0  0  0  0  0  0
  1 15  1  0  0  0  0
  1  7  2  0  0  0  0
  1  2  1  0  0  0  0
  2  4  1  0  0  0  0
  2  3  2  0  0  0  0
  4  5  1  0  0  0  0
  5 18  1  0  0  0  0
  5  6  2  0  0  0  0
  6 22  1  0  0  0  0
  6  7  1  0  0  0  0
  7  8  1  0  0  0  0
  9 15  1  0  0  0  0
  9 14  2  0  0  0  0
  9 10  1  0  0  0  0
 10 11  2  0  0  0  0
 10 23  1  0  0  0  0
 11 12  1  0  0  0  0
 11 24  1  0  0  0  0
 12 13  2  0  0  0  0
 12 25  1  0  0  0  0
 13 14  1  0  0  0  0
 13 26  1  0  0  0  0
 14 27  1  0  0  0  0
 15 16  1  0  0  0  0
 15 28  1  6  0  0  0
 16 17  1  0  0  0  0
 16 29  1  0  0  0  0
 16 30  1  0  0  0  0
 17 31  1  0  0  0  0
 17 32  1  0  0  0  0
 17 33  1  0  0  0  0
 18 19  1  0  0  0  0
 18 34  1  0  0  0  0
 18 35  1  0  0  0  0
 19 20  1  0  0  0  0
 19 36  1  0  0  0  0
 19 37  1  0  0  0  0
 20 21  1  0  0  0  0
 20 38  1  0  0  0  0
 20 39  1  0  0  0  0
 21 22  1  0  0  0  0
 21 40  1  0  0  0  0
 21 41  1  0  0  0  0
 22 42  1  0  0  0  0
 22 43  1  0  0  0  0
M  CHG  1   4   1
M  END
$$$$
