NOJ
 OpenBabel04161911373D

 25 25  0  0  1  0  0  0  0  0999 V2000
  -13.5211  -32.6456   95.0304 C   0  0  0  0  0  0  0  0  0  0  0  0
  -12.3791  -31.7298   95.4289 C   0  0  2  0  0  0  0  0  0  0  0  0
  -11.1445  -32.2125   94.9279 O   0  0  0  0  0  0  0  0  0  0  0  0
  -12.3165  -31.5932   96.9645 C   0  0  1  0  0  0  0  0  0  0  0  0
  -11.2772  -30.6854   97.3314 O   0  0  0  0  0  0  0  0  0  0  0  0
  -13.6409  -31.0567   97.5115 C   0  0  2  0  0  0  0  0  0  0  0  0
  -13.5714  -31.0116   98.9390 O   0  0  0  0  0  0  0  0  0  0  0  0
  -14.8078  -31.9700   97.1023 C   0  0  2  0  0  0  0  0  0  0  0  0
  -14.8112  -32.1727   95.5976 N   0  3  0  0  0  0  0  0  0  0  0  0
  -16.1706  -31.3517   97.4821 C   0  0  0  0  0  0  0  0  0  0  0  0
  -16.3090  -30.0686   96.8797 O   0  0  0  0  0  0  0  0  0  0  0  0
  -13.3677  -33.6736   95.3792 H   0  0  0  0  0  0  0  0  0  0  0  0
  -13.6474  -32.6751   93.9352 H   0  0  0  0  0  0  0  0  0  0  0  0
  -12.5294  -30.7315   94.9892 H   0  0  0  0  0  0  0  0  0  0  0  0
  -10.9656  -33.1152   95.2443 H   0  0  0  0  0  0  0  0  0  0  0  0
  -12.0636  -32.5561   97.4322 H   0  0  0  0  0  0  0  0  0  0  0  0
  -10.4489  -30.9762   96.9041 H   0  0  0  0  0  0  0  0  0  0  0  0
  -13.7943  -30.0255   97.1629 H   0  0  0  0  0  0  0  0  0  0  0  0
  -12.8226  -30.4076   99.1610 H   0  0  0  0  0  0  0  0  0  0  0  0
  -14.7112  -32.9544   97.5631 H   0  0  0  0  0  0  0  0  0  0  0  0
  -15.0547  -31.2784   95.1429 H   0  0  0  0  0  0  0  0  0  0  0  0
  -16.2517  -31.2363   98.5660 H   0  0  0  0  0  0  0  0  0  0  0  0
  -16.9934  -31.9985   97.1527 H   0  0  0  0  0  0  0  0  0  0  0  0
  -16.5686  -30.1243   95.9455 H   0  0  0  0  0  0  0  0  0  0  0  0
  -15.5558  -32.8323   95.3523 H   0  0  0  0  0  0  0  0  0  0  0  0
  1  2  1  0  0  0  0
  1  9  1  0  0  0  0
  1 12  1  0  0  0  0
  1 13  1  0  0  0  0
  2  3  1  0  0  0  0
  2  4  1  0  0  0  0
  2 14  1  6  0  0  0
  3 15  1  0  0  0  0
  4  5  1  0  0  0  0
  4  6  1  0  0  0  0
  4 16  1  1  0  0  0
  5 17  1  0  0  0  0
  6  7  1  0  0  0  0
  6  8  1  0  0  0  0
  6 18  1  6  0  0  0
  7 19  1  0  0  0  0
  8  9  1  0  0  0  0
  8 10  1  0  0  0  0
  8 20  1  1  0  0  0
  9 21  1  0  0  0  0
  9 25  1  0  0  0  0
 10 11  1  0  0  0  0
 10 22  1  0  0  0  0
 10 23  1  0  0  0  0
 11 24  1  0  0  0  0
M  CHG  1   9   1
M  END
$$$$
