NVS
 OpenBabel04161910333D

 33 35  0  0  0  0  0  0  0  0999 V2000
   32.3966  -27.5274  -24.5113 N   0  0  0  0  0  0  0  0  0  0  0  0
   31.3872  -27.4337  -23.5581 C   0  0  0  0  0  0  0  0  0  0  0  0
   31.4281  -28.3346  -22.4991 O   0  0  0  0  0  0  0  0  0  0  0  0
   32.5750  -29.0937  -22.2602 C   0  0  0  0  0  0  0  0  0  0  0  0
   33.5257  -29.2877  -23.2491 C   0  0  0  0  0  0  0  0  0  0  0  0
   33.3056  -28.6633  -24.5854 C   0  0  0  0  0  0  0  0  0  0  0  0
   30.5031  -26.5774  -23.5634 O   0  0  0  0  0  0  0  0  0  0  0  0
   32.7002  -29.6401  -20.9840 C   0  0  0  0  0  0  0  0  0  0  0  0
   33.8116  -30.4187  -20.7128 C   0  0  0  0  0  0  0  0  0  0  0  0
   34.7709  -30.6627  -21.6905 C   0  0  0  0  0  0  0  0  0  0  0  0
   34.6256  -30.0992  -22.9681 C   0  0  0  0  0  0  0  0  0  0  0  0
   33.9917  -30.9658  -19.4775 O   0  0  0  0  0  0  0  0  0  0  0  0
   32.4049  -26.6173  -25.5920 C   0  0  0  0  0  0  0  0  0  0  0  0
   31.2801  -26.4446  -26.4039 C   0  0  0  0  0  0  0  0  0  0  0  0
   31.2986  -25.4912  -27.4253 C   0  0  0  0  0  0  0  0  0  0  0  0
   32.4332  -24.7023  -27.6310 C   0  0  0  0  0  0  0  0  0  0  0  0
   33.5406  -24.8627  -26.7963 C   0  0  0  0  0  0  0  0  0  0  0  0
   33.5332  -25.8256  -25.7895 C   0  0  0  0  0  0  0  0  0  0  0  0
   32.3487  -23.7855  -28.6441 O   0  0  0  0  0  0  0  0  0  0  0  0
   33.5932  -23.2787  -29.1193 C   0  0  0  0  0  0  0  0  0  0  0  0
   34.2676  -28.3345  -24.9961 H   0  0  0  0  0  0  0  0  0  0  0  0
   32.8775  -29.4053  -25.2717 H   0  0  0  0  0  0  0  0  0  0  0  0
   31.9428  -29.4359  -20.2391 H   0  0  0  0  0  0  0  0  0  0  0  0
   35.6263  -31.2857  -21.4657 H   0  0  0  0  0  0  0  0  0  0  0  0
   35.3802  -30.2994  -23.7269 H   0  0  0  0  0  0  0  0  0  0  0  0
   33.2545  -30.6776  -18.9043 H   0  0  0  0  0  0  0  0  0  0  0  0
   30.3877  -27.0454  -26.2480 H   0  0  0  0  0  0  0  0  0  0  0  0
   30.4212  -25.3649  -28.0551 H   0  0  0  0  0  0  0  0  0  0  0  0
   34.4173  -24.2323  -26.8804 H   0  0  0  0  0  0  0  0  0  0  0  0
   34.3850  -25.8977  -25.1182 H   0  0  0  0  0  0  0  0  0  0  0  0
   33.3867  -22.5641  -29.9205 H   0  0  0  0  0  0  0  0  0  0  0  0
   34.2045  -24.0884  -29.5330 H   0  0  0  0  0  0  0  0  0  0  0  0
   34.1389  -22.7352  -28.3410 H   0  0  0  0  0  0  0  0  0  0  0  0
  1  2  1  0  0  0  0
  1  6  1  0  0  0  0
  1 13  1  0  0  0  0
  2  3  1  0  0  0  0
  2  7  2  0  0  0  0
  3  4  1  0  0  0  0
  4  5  2  0  0  0  0
  4  8  1  0  0  0  0
  5  6  1  0  0  0  0
  5 11  1  0  0  0  0
  6 21  1  0  0  0  0
  6 22  1  0  0  0  0
  8  9  2  0  0  0  0
  8 23  1  0  0  0  0
  9 10  1  0  0  0  0
  9 12  1  0  0  0  0
 10 11  2  0  0  0  0
 10 24  1  0  0  0  0
 11 25  1  0  0  0  0
 12 26  1  0  0  0  0
 13 14  2  0  0  0  0
 13 18  1  0  0  0  0
 14 15  1  0  0  0  0
 14 27  1  0  0  0  0
 15 16  2  0  0  0  0
 15 28  1  0  0  0  0
 16 17  1  0  0  0  0
 16 19  1  0  0  0  0
 17 18  2  0  0  0  0
 17 29  1  0  0  0  0
 18 30  1  0  0  0  0
 19 20  1  0  0  0  0
 20 31  1  0  0  0  0
 20 32  1  0  0  0  0
 20 33  1  0  0  0  0
M  END
$$$$
