O82
 OpenBabel04161910243D

 37 39  0  0  1  0  0  0  0  0999 V2000
  124.6223  102.8386  -43.9632 C   0  0  1  0  0  0  0  0  0  0  0  0
  127.2822  102.6267  -40.9422 F   0  0  0  0  0  0  0  0  0  0  0  0
  124.8968  102.9619  -42.6231 N   0  3  2  0  0  0  0  0  0  0  0  0
  124.3892  104.1248  -44.4576 C   0  0  2  0  0  0  0  0  0  0  0  0
  123.1348  109.0004  -41.5983 N   0  3  0  0  0  0  0  0  0  0  0  0
  124.5297  105.0288  -43.3642 C   0  0  2  0  0  0  0  0  0  0  0  0
  124.8479  104.2819  -42.2305 C   0  0  2  0  0  0  0  0  0  0  0  0
  124.5700  101.7053  -44.7829 C   0  0  0  0  0  0  0  0  0  0  0  0
  124.2568  101.8863  -46.1278 C   0  0  0  0  0  0  0  0  0  0  0  0
  124.0110  103.1500  -46.6450 C   0  0  0  0  0  0  0  0  0  0  0  0
  124.0763  104.2922  -45.8207 C   0  0  0  0  0  0  0  0  0  0  0  0
  125.0589  104.8622  -40.9745 C   0  0  0  0  0  0  0  0  0  0  0  0
  124.9406  106.2478  -40.8745 C   0  0  0  0  0  0  0  0  0  0  0  0
  124.6174  107.0254  -41.9886 C   0  0  2  0  0  0  0  0  0  0  0  0
  124.4092  106.4235  -43.2394 C   0  0  0  0  0  0  0  0  0  0  0  0
  125.2133  101.8508  -41.7431 C   0  0  0  0  0  0  0  0  0  0  0  0
  126.7032  101.6249  -41.6607 C   0  0  0  0  0  0  0  0  0  0  0  0
  124.5228  108.5024  -41.8639 C   0  0  0  0  0  0  0  0  0  0  0  0
  123.1226  110.4782  -41.4395 C   0  0  0  0  0  0  0  0  0  0  0  0
  122.5246  108.7157  -42.3724 H   0  0  0  0  0  0  0  0  0  0  0  0
  124.7581  100.7089  -44.3903 H   0  0  0  0  0  0  0  0  0  0  0  0
  124.2035  101.0249  -46.7891 H   0  0  0  0  0  0  0  0  0  0  0  0
  123.7670  103.2698  -47.6919 H   0  0  0  0  0  0  0  0  0  0  0  0
  123.8903  105.2741  -46.2352 H   0  0  0  0  0  0  0  0  0  0  0  0
  125.3217  104.2608  -40.1065 H   0  0  0  0  0  0  0  0  0  0  0  0
  125.1169  106.7246  -39.9103 H   0  0  0  0  0  0  0  0  0  0  0  0
  124.1725  107.0267  -44.1110 H   0  0  0  0  0  0  0  0  0  0  0  0
  124.7298  100.9524  -42.1390 H   0  0  0  0  0  0  0  0  0  0  0  0
  124.7968  102.0658  -40.7565 H   0  0  0  0  0  0  0  0  0  0  0  0
  126.9016  100.6853  -41.1432 H   0  0  0  0  0  0  0  0  0  0  0  0
  127.1507  101.6073  -42.6551 H   0  0  0  0  0  0  0  0  0  0  0  0
  125.1540  108.8439  -41.0349 H   0  0  0  0  0  0  0  0  0  0  0  0
  124.8667  108.9755  -42.7904 H   0  0  0  0  0  0  0  0  0  0  0  0
  122.1013  110.7980  -41.2492 H   0  0  0  0  0  0  0  0  0  0  0  0
  123.5006  110.9216  -42.3637 H   0  0  0  0  0  0  0  0  0  0  0  0
  123.7703  110.7336  -40.5972 H   0  0  0  0  0  0  0  0  0  0  0  0
  122.7723  108.5436  -40.7546 H   0  0  0  0  0  0  0  0  0  0  0  0
  1  3  1  0  0  0  0
  1  4  1  0  0  0  0
  1  8  1  6  0  0  0
  2 17  1  0  0  0  0
  3  7  1  0  0  0  0
  3 16  1  6  0  0  0
  4  6  1  0  0  0  0
  4 11  1  1  0  0  0
  5 18  1  0  0  0  0
  5 19  1  0  0  0  0
  5 20  1  0  0  0  0
  5 37  1  0  0  0  0
  6  7  1  0  0  0  0
  6 15  1  1  0  0  0
  7 12  1  6  0  0  0
  8  9  1  0  0  0  0
  8 21  1  0  0  0  0
  9 10  1  0  0  0  0
  9 22  1  0  0  0  0
 10 11  1  0  0  0  0
 10 23  1  0  0  0  0
 11 24  1  0  0  0  0
 12 13  1  0  0  0  0
 12 25  1  0  0  0  0
 13 14  1  0  0  0  0
 13 26  1  0  0  0  0
 14 15  1  0  0  0  0
 14 18  1  6  0  0  0
 15 27  1  0  0  0  0
 16 17  1  0  0  0  0
 16 28  1  0  0  0  0
 16 29  1  0  0  0  0
 17 30  1  0  0  0  0
 17 31  1  0  0  0  0
 18 32  1  0  0  0  0
 18 33  1  0  0  0  0
 19 34  1  0  0  0  0
 19 35  1  0  0  0  0
 19 36  1  0  0  0  0
M  CHG  2   3   1   5   1
M  END
$$$$
