OOG
 OpenBabel04161911403D

 17 16  0  0  0  0  0  0  0  0999 V2000
   11.3757  194.2160   86.3608 C   0  0  0  0  0  0  0  0  0  0  0  0
   10.0821  194.5932   85.6407 C   0  0  0  0  0  0  0  0  0  0  0  0
    9.1832  193.3624   85.4652 C   0  0  0  0  0  0  0  0  0  0  0  0
    7.0161  192.4494   84.3015 C   0  0  0  0  0  0  0  0  0  0  0  0
    7.4577  191.2950   84.6168 O   0  0  0  0  0  0  0  0  0  0  0  0
    5.9131  192.6882   83.7090 O   0  0  0  0  0  0  0  0  0  0  0  0
    7.9090  193.6442   84.6948 C   0  0  0  0  0  0  0  0  0  0  0  0
   12.4075  195.3455   86.3776 C   0  0  0  0  0  0  0  0  0  0  0  0
   13.1969  195.3712   85.3882 O   0  0  0  0  0  0  0  0  0  0  0  0
   12.3956  196.0801   87.4069 O   0  0  0  0  0  0  0  0  0  0  0  0
    7.5161  194.7701   84.3894 O   0  0  0  0  0  0  0  0  0  0  0  0
   11.8312  193.3480   85.8686 H   0  0  0  0  0  0  0  0  0  0  0  0
   11.1504  193.9141   87.3907 H   0  0  0  0  0  0  0  0  0  0  0  0
   10.3066  195.0385   84.6636 H   0  0  0  0  0  0  0  0  0  0  0  0
    9.5498  195.3619   86.2158 H   0  0  0  0  0  0  0  0  0  0  0  0
    8.8922  192.9746   86.4479 H   0  0  0  0  0  0  0  0  0  0  0  0
    9.7380  192.5827   84.9312 H   0  0  0  0  0  0  0  0  0  0  0  0
  1  2  1  0  0  0  0
  1  8  1  0  0  0  0
  1 12  1  0  0  0  0
  1 13  1  0  0  0  0
  2  3  1  0  0  0  0
  2 14  1  0  0  0  0
  2 15  1  0  0  0  0
  3  7  1  0  0  0  0
  3 16  1  0  0  0  0
  3 17  1  0  0  0  0
  4  5  2  0  0  0  0
  4  6  1  0  0  0  0
  4  7  1  0  0  0  0
  7 11  2  0  0  0  0
  8  9  2  0  0  0  0
  8 10  1  0  0  0  0
M  END
$$$$
