OTA
 OpenBabel04161910533D

 27 28  0  0  0  0  0  0  0  0999 V2000
  -42.5859   10.4547    0.0481 N   0  3  0  0  0  0  0  0  0  0  0  0
  -42.3622   10.7648    1.5137 C   0  0  0  0  0  0  0  0  0  0  0  0
  -42.7912   12.1543    1.8670 C   0  0  0  0  0  0  0  0  0  0  0  0
  -43.5814   12.9624    1.0689 C   0  0  0  0  0  0  0  0  0  0  0  0
  -44.0526   12.4674   -0.2628 C   0  0  0  0  0  0  0  0  0  0  0  0
  -43.8854   10.9641   -0.4851 C   0  0  0  0  0  0  0  0  0  0  0  0
  -42.3845   12.9247    3.3345 S   0  0  0  0  0  0  0  0  0  0  0  0
  -43.2619   14.3307    2.9352 C   0  0  0  0  0  0  0  0  0  0  0  0
  -43.8610   14.2489    1.6944 C   0  0  0  0  0  0  0  0  0  0  0  0
  -44.6599   15.4175    1.1320 C   0  0  0  0  0  0  0  0  0  0  0  0
  -45.0219   16.3204    1.9249 O   0  0  0  0  0  0  0  0  0  0  0  0
  -44.8655   15.3586   -0.1284 O   0  0  0  0  0  0  0  0  0  0  0  0
  -43.3385   15.4364    3.7472 N   0  0  0  0  0  0  0  0  0  0  0  0
  -42.8091   15.6393    4.9969 C   0  0  0  0  0  0  0  0  0  0  0  0
  -43.1257   17.0275    5.6353 C   0  0  0  0  0  0  0  0  0  0  0  0
  -42.1753   17.6244    6.2535 O   0  0  0  0  0  0  0  0  0  0  0  0
  -44.2916   17.4843    5.4210 O   0  0  0  0  0  0  0  0  0  0  0  0
  -42.1223   14.8566    5.6540 O   0  0  0  0  0  0  0  0  0  0  0  0
  -41.8255   10.8899   -0.4864 H   0  0  0  0  0  0  0  0  0  0  0  0
  -41.2922   10.5961    1.6689 H   0  0  0  0  0  0  0  0  0  0  0  0
  -42.9411   10.0046    2.0506 H   0  0  0  0  0  0  0  0  0  0  0  0
  -43.4858   12.9692   -1.0495 H   0  0  0  0  0  0  0  0  0  0  0  0
  -45.1185   12.6632   -0.3687 H   0  0  0  0  0  0  0  0  0  0  0  0
  -44.6790   10.3890    0.0018 H   0  0  0  0  0  0  0  0  0  0  0  0
  -43.8904   10.7389   -1.5607 H   0  0  0  0  0  0  0  0  0  0  0  0
  -43.9093   16.2248    3.3873 H   0  0  0  0  0  0  0  0  0  0  0  0
  -42.5405    9.4408   -0.0938 H   0  0  0  0  0  0  0  0  0  0  0  0
  1  2  1  0  0  0  0
  1  6  1  0  0  0  0
  1 19  1  0  0  0  0
  1 27  1  0  0  0  0
  2  3  1  0  0  0  0
  2 20  1  0  0  0  0
  2 21  1  0  0  0  0
  3  4  2  0  0  0  0
  3  7  1  0  0  0  0
  4  5  1  0  0  0  0
  4  9  1  0  0  0  0
  5  6  1  0  0  0  0
  5 22  1  0  0  0  0
  5 23  1  0  0  0  0
  6 24  1  0  0  0  0
  6 25  1  0  0  0  0
  7  8  1  0  0  0  0
  8  9  2  0  0  0  0
  8 13  1  0  0  0  0
  9 10  1  0  0  0  0
 10 11  2  0  0  0  0
 10 12  1  0  0  0  0
 13 14  1  0  0  0  0
 13 26  1  0  0  0  0
 14 15  1  0  0  0  0
 14 18  2  0  0  0  0
 15 16  2  0  0  0  0
 15 17  1  0  0  0  0
M  CHG  1   1   1
M  END
$$$$
