OTA
 OpenBabel04161910543D

 22 23  0  0  0  0  0  0  0  0999 V2000
   34.4348  -11.0358  -18.5222 N   0  0  0  0  0  0  0  0  0  0  0  0
   33.6435  -10.7922  -17.4484 C   0  0  0  0  0  0  0  0  0  0  0  0
   32.6465  -11.6994  -17.0653 C   0  0  0  0  0  0  0  0  0  0  0  0
   32.4457  -12.8965  -17.7584 C   0  0  0  0  0  0  0  0  0  0  0  0
   33.3041  -13.1442  -18.8573 C   0  0  0  0  0  0  0  0  0  0  0  0
   34.2364  -12.1782  -19.2046 C   0  0  0  0  0  0  0  0  0  0  0  0
   31.5250  -11.5263  -15.7682 S   0  0  0  0  0  0  0  0  0  0  0  0
   30.7594  -12.9991  -16.1058 C   0  0  0  0  0  0  0  0  0  0  0  0
   31.3302  -13.6356  -17.1964 C   0  0  0  0  0  0  0  0  0  0  0  0
   30.8193  -14.9276  -17.7356 C   0  0  0  0  0  0  0  0  0  0  0  0
   29.8909  -15.4974  -17.0957 O   0  0  0  0  0  0  0  0  0  0  0  0
   31.3388  -15.3608  -18.8154 O   0  0  0  0  0  0  0  0  0  0  0  0
   29.6572  -13.4281  -15.3831 N   0  0  0  0  0  0  0  0  0  0  0  0
   29.1417  -12.9397  -14.1889 C   0  0  0  0  0  0  0  0  0  0  0  0
   27.8353  -13.6229  -13.6494 C   0  0  0  0  0  0  0  0  0  0  0  0
   26.8686  -12.8628  -13.3153 O   0  0  0  0  0  0  0  0  0  0  0  0
   27.8337  -14.8959  -13.6426 O   0  0  0  0  0  0  0  0  0  0  0  0
   29.5902  -12.0421  -13.4824 O   0  0  0  0  0  0  0  0  0  0  0  0
   33.7977   -9.8478  -16.9425 H   0  0  0  0  0  0  0  0  0  0  0  0
   33.2106  -14.0512  -19.4456 H   0  0  0  0  0  0  0  0  0  0  0  0
   34.8446  -12.2988  -20.0951 H   0  0  0  0  0  0  0  0  0  0  0  0
   29.2169  -14.2918  -15.7367 H   0  0  0  0  0  0  0  0  0  0  0  0
  1  2  2  0  0  0  0
  1  6  1  0  0  0  0
  2  3  1  0  0  0  0
  2 19  1  0  0  0  0
  3  4  2  0  0  0  0
  3  7  1  0  0  0  0
  4  5  1  0  0  0  0
  4  9  1  0  0  0  0
  5  6  2  0  0  0  0
  5 20  1  0  0  0  0
  6 21  1  0  0  0  0
  7  8  1  0  0  0  0
  8  9  2  0  0  0  0
  8 13  1  0  0  0  0
  9 10  1  0  0  0  0
 10 11  2  0  0  0  0
 10 12  1  0  0  0  0
 13 14  1  0  0  0  0
 13 22  1  0  0  0  0
 14 15  1  0  0  0  0
 14 18  2  0  0  0  0
 15 16  2  0  0  0  0
 15 17  1  0  0  0  0
M  END
$$$$
