OTA
 OpenBabel04161910543D

 27 28  0  0  0  0  0  0  0  0999 V2000
   59.6508   30.3266   10.7224 N   0  3  0  0  0  0  0  0  0  0  0  0
   59.8387   28.8392   10.8852 C   0  0  0  0  0  0  0  0  0  0  0  0
   59.5697   28.4043   12.2793 C   0  0  0  0  0  0  0  0  0  0  0  0
   59.5827   29.2359   13.3895 C   0  0  0  0  0  0  0  0  0  0  0  0
   59.8396   30.7035   13.2322 C   0  0  0  0  0  0  0  0  0  0  0  0
   60.2491   31.1506   11.8207 C   0  0  0  0  0  0  0  0  0  0  0  0
   59.2387   26.7864   12.6877 S   0  0  0  0  0  0  0  0  0  0  0  0
   59.0899   27.1456   14.3415 C   0  0  0  0  0  0  0  0  0  0  0  0
   59.2869   28.4850   14.6088 C   0  0  0  0  0  0  0  0  0  0  0  0
   59.2171   28.9876   16.0247 C   0  0  0  0  0  0  0  0  0  0  0  0
   58.8199   28.2086   16.9311 O   0  0  0  0  0  0  0  0  0  0  0  0
   59.5873   30.2089   16.1806 O   0  0  0  0  0  0  0  0  0  0  0  0
   58.8061   26.1869   15.2917 N   0  0  0  0  0  0  0  0  0  0  0  0
   58.6870   24.8207   15.1538 C   0  0  0  0  0  0  0  0  0  0  0  0
   58.3862   24.0153   16.4665 C   0  0  0  0  0  0  0  0  0  0  0  0
   57.6461   24.6169   17.3131 O   0  0  0  0  0  0  0  0  0  0  0  0
   58.9243   22.8712   16.6038 O   0  0  0  0  0  0  0  0  0  0  0  0
   58.7904   24.1618   14.1192 O   0  0  0  0  0  0  0  0  0  0  0  0
   60.0499   30.6143    9.8255 H   0  0  0  0  0  0  0  0  0  0  0  0
   60.8744   28.6392   10.5903 H   0  0  0  0  0  0  0  0  0  0  0  0
   59.1614   28.3891   10.1513 H   0  0  0  0  0  0  0  0  0  0  0  0
   60.6535   31.0063   13.8947 H   0  0  0  0  0  0  0  0  0  0  0  0
   58.9279   31.2485   13.4944 H   0  0  0  0  0  0  0  0  0  0  0  0
   59.9107   32.1791   11.6380 H   0  0  0  0  0  0  0  0  0  0  0  0
   61.3343   31.1243   11.6774 H   0  0  0  0  0  0  0  0  0  0  0  0
   58.6754   26.5368   16.2595 H   0  0  0  0  0  0  0  0  0  0  0  0
   58.6404   30.5073   10.6930 H   0  0  0  0  0  0  0  0  0  0  0  0
  1  2  1  0  0  0  0
  1  6  1  0  0  0  0
  1 19  1  0  0  0  0
  1 27  1  0  0  0  0
  2  3  1  0  0  0  0
  2 20  1  0  0  0  0
  2 21  1  0  0  0  0
  3  4  2  0  0  0  0
  3  7  1  0  0  0  0
  4  5  1  0  0  0  0
  4  9  1  0  0  0  0
  5  6  1  0  0  0  0
  5 22  1  0  0  0  0
  5 23  1  0  0  0  0
  6 24  1  0  0  0  0
  6 25  1  0  0  0  0
  7  8  1  0  0  0  0
  8  9  2  0  0  0  0
  8 13  1  0  0  0  0
  9 10  1  0  0  0  0
 10 11  2  0  0  0  0
 10 12  1  0  0  0  0
 13 14  1  0  0  0  0
 13 26  1  0  0  0  0
 14 15  1  0  0  0  0
 14 18  2  0  0  0  0
 15 16  2  0  0  0  0
 15 17  1  0  0  0  0
M  CHG  1   1   1
M  END
$$$$
