P46
 OpenBabel04161910453D

 63 66  0  0  1  0  0  0  0  0999 V2000
  -58.4395   11.2486    9.1664 C   0  0  0  0  0  0  0  0  0  0  0  0
  -59.0945   10.8057   10.3567 C   0  0  0  0  0  0  0  0  0  0  0  0
  -61.1892   10.4243    9.2956 C   0  0  0  0  0  0  0  0  0  0  0  0
  -60.5986   10.8341    8.0842 C   0  0  0  0  0  0  0  0  0  0  0  0
  -63.3994   10.2206    7.8550 O   0  0  0  0  0  0  0  0  0  0  0  0
  -65.1215   10.8539   10.4975 C   0  0  0  0  0  0  0  0  0  0  0  0
  -65.7307   12.2089   10.7064 C   0  0  0  0  0  0  0  0  0  0  0  0
  -64.8178   13.2020   10.3566 C   0  0  0  0  0  0  0  0  0  0  0  0
  -63.5365   12.5644    9.8738 C   0  0  0  0  0  0  0  0  0  0  0  0
  -65.1679   14.5340   10.4828 C   0  0  0  0  0  0  0  0  0  0  0  0
  -60.4626   10.3974   10.5076 C   0  0  0  0  0  0  0  0  0  0  0  0
  -59.2596   11.2365    8.0369 C   0  0  0  0  0  0  0  0  0  0  0  0
  -62.9244    9.9805    9.2156 S   0  0  0  0  0  0  0  0  0  0  0  0
  -63.1826    8.6641    9.7756 O   0  0  0  0  0  0  0  0  0  0  0  0
  -63.7258   11.1243   10.1539 N   0  0  0  0  0  0  0  0  0  0  0  0
  -66.4426   14.8493   10.9900 C   0  0  0  0  0  0  0  0  0  0  0  0
  -67.3867   13.8477   11.3557 C   0  0  0  0  0  0  0  0  0  0  0  0
  -67.0024   12.5143   11.1774 C   0  0  0  0  0  0  0  0  0  0  0  0
  -68.6654   14.2148   11.7921 N   0  0  0  0  0  0  0  0  0  0  0  0
  -69.7257   13.2566   12.1295 C   0  0  2  0  0  0  0  0  0  0  0  0
  -71.0931   13.9677   12.1627 C   0  0  0  0  0  0  0  0  0  0  0  0
  -72.2104   12.9984   12.5549 C   0  0  0  0  0  0  0  0  0  0  0  0
  -71.9257   12.3668   13.8437 N   0  0  0  0  0  0  0  0  0  0  0  0
  -70.6527   11.6323   13.8481 C   0  0  0  0  0  0  0  0  0  0  0  0
  -69.4879   12.5595   13.4827 C   0  0  0  0  0  0  0  0  0  0  0  0
  -72.7406   12.3634   14.9593 C   0  0  0  0  0  0  0  0  0  0  0  0
  -74.0979   13.1168   14.9464 C   0  0  2  0  0  0  0  0  0  0  0  0
  -73.9602   14.6118   15.2133 C   0  0  0  0  0  0  0  0  0  0  0  0
  -74.2253   15.4040   13.9618 C   0  0  0  0  0  0  0  0  0  0  0  0
  -73.3424   16.0032   13.3658 O   0  0  0  0  0  0  0  0  0  0  0  0
  -75.4959   15.3738   13.4727 N   0  0  0  0  0  0  0  0  0  0  0  0
  -74.9434   12.5310   16.0789 N   0  3  0  0  0  0  0  0  0  0  0  0
  -72.4754   11.7449   15.9935 O   0  0  0  0  0  0  0  0  0  0  0  0
  -60.9381   10.0611   11.6498 O   0  0  0  0  0  0  0  0  0  0  0  0
  -57.2150   11.6223    9.1182 O   0  0  0  0  0  0  0  0  0  0  0  0
  -58.4800   10.7814   11.2615 H   0  0  0  0  0  0  0  0  0  0  0  0
  -61.1665   10.8563    7.1617 H   0  0  0  0  0  0  0  0  0  0  0  0
  -65.6546   10.3396    9.6897 H   0  0  0  0  0  0  0  0  0  0  0  0
  -65.1662   10.2690   11.4197 H   0  0  0  0  0  0  0  0  0  0  0  0
  -62.6782   12.9409   10.4393 H   0  0  0  0  0  0  0  0  0  0  0  0
  -63.4093   12.7575    8.8046 H   0  0  0  0  0  0  0  0  0  0  0  0
  -64.4667   15.3161   10.2103 H   0  0  0  0  0  0  0  0  0  0  0  0
  -58.8333   11.5570    7.0883 H   0  0  0  0  0  0  0  0  0  0  0  0
  -66.7086   15.9021   11.0780 H   0  0  0  0  0  0  0  0  0  0  0  0
  -67.6592   11.6929   11.4223 H   0  0  0  0  0  0  0  0  0  0  0  0
  -68.7671   15.1797   12.0937 H   0  0  0  0  0  0  0  0  0  0  0  0
  -69.7809   12.5061   11.3310 H   0  0  0  0  0  0  0  0  0  0  0  0
  -71.3207   14.4049   11.1838 H   0  0  0  0  0  0  0  0  0  0  0  0
  -71.0604   14.7933   12.8843 H   0  0  0  0  0  0  0  0  0  0  0  0
  -72.2995   12.1944   11.8136 H   0  0  0  0  0  0  0  0  0  0  0  0
  -73.1736   13.5030   12.5688 H   0  0  0  0  0  0  0  0  0  0  0  0
  -70.7421   10.8248   13.1081 H   0  0  0  0  0  0  0  0  0  0  0  0
  -70.4713   11.1585   14.8174 H   0  0  0  0  0  0  0  0  0  0  0  0
  -69.3651   13.3107   14.2722 H   0  0  0  0  0  0  0  0  0  0  0  0
  -68.5660   11.9707   13.4643 H   0  0  0  0  0  0  0  0  0  0  0  0
  -74.6536   12.8648   14.0408 H   0  0  0  0  0  0  0  0  0  0  0  0
  -72.9576   14.8683   15.5761 H   0  0  0  0  0  0  0  0  0  0  0  0
  -74.6698   14.9700   15.9703 H   0  0  0  0  0  0  0  0  0  0  0  0
  -75.6573   15.9753   12.6659 H   0  0  0  0  0  0  0  0  0  0  0  0
  -76.3214   15.1323   14.0019 H   0  0  0  0  0  0  0  0  0  0  0  0
  -75.8619   12.9621   16.2048 H   0  0  0  0  0  0  0  0  0  0  0  0
  -75.0603   11.5193   15.9294 H   0  0  0  0  0  0  0  0  0  0  0  0
  -74.4037   12.5927   16.9556 H   0  0  0  0  0  0  0  0  0  0  0  0
  1  2  2  0  0  0  0
  1 12  1  0  0  0  0
  1 35  1  0  0  0  0
  2 11  1  0  0  0  0
  2 36  1  0  0  0  0
  3  4  1  0  0  0  0
  3 11  2  0  0  0  0
  3 13  1  0  0  0  0
  4 12  2  0  0  0  0
  4 37  1  0  0  0  0
  5 13  2  0  0  0  0
  6  7  1  0  0  0  0
  6 15  1  0  0  0  0
  6 38  1  0  0  0  0
  6 39  1  0  0  0  0
  7  8  2  0  0  0  0
  7 18  1  0  0  0  0
  8  9  1  0  0  0  0
  8 10  1  0  0  0  0
  9 15  1  0  0  0  0
  9 40  1  0  0  0  0
  9 41  1  0  0  0  0
 10 16  2  0  0  0  0
 10 42  1  0  0  0  0
 11 34  1  0  0  0  0
 12 43  1  0  0  0  0
 13 14  2  0  0  0  0
 13 15  1  0  0  0  0
 16 17  1  0  0  0  0
 16 44  1  0  0  0  0
 17 18  2  0  0  0  0
 17 19  1  0  0  0  0
 18 45  1  0  0  0  0
 19 20  1  0  0  0  0
 19 46  1  0  0  0  0
 20 21  1  0  0  0  0
 20 25  1  0  0  0  0
 20 47  1  6  0  0  0
 21 22  1  0  0  0  0
 21 48  1  0  0  0  0
 21 49  1  0  0  0  0
 22 23  1  0  0  0  0
 22 50  1  0  0  0  0
 22 51  1  0  0  0  0
 23 24  1  0  0  0  0
 23 26  1  0  0  0  0
 24 25  1  0  0  0  0
 24 52  1  0  0  0  0
 24 53  1  0  0  0  0
 25 54  1  0  0  0  0
 25 55  1  0  0  0  0
 26 27  1  0  0  0  0
 26 33  2  0  0  0  0
 27 28  1  0  0  0  0
 27 32  1  0  0  0  0
 27 56  1  6  0  0  0
 28 29  1  0  0  0  0
 28 57  1  0  0  0  0
 28 58  1  0  0  0  0
 29 30  2  0  0  0  0
 29 31  1  0  0  0  0
 31 59  1  0  0  0  0
 31 60  1  0  0  0  0
 32 61  1  0  0  0  0
 32 62  1  0  0  0  0
 32 63  1  0  0  0  0
M  CHG  1  32   1
M  END
$$$$
