PKU
 OpenBabel04161911193D

 17 17  0  0  1  0  0  0  0  0999 V2000
  -20.4518  -25.0126  -12.3418 C   0  0  0  0  0  0  0  0  0  0  0  0
  -18.4207  -30.0083  -14.7833 C   0  0  0  0  0  0  0  0  0  0  0  0
  -17.7492  -27.8968  -14.3241 C   0  0  0  0  0  0  0  0  0  0  0  0
  -20.0622  -27.0580  -13.5473 C   0  0  0  0  0  0  0  0  0  0  0  0
  -17.3407  -29.1619  -14.7884 C   0  0  2  0  0  0  0  0  0  0  0  0
  -19.0994  -28.0028  -14.0411 C   0  0  1  0  0  0  0  0  0  0  0  0
  -19.5424  -25.9457  -12.9406 N   0  0  0  0  0  0  0  0  0  0  0  0
  -19.4881  -29.2926  -14.3290 N   0  3  0  0  0  0  0  0  0  0  0  0
  -21.2726  -27.2672  -13.6294 O   0  0  0  0  0  0  0  0  0  0  0  0
  -15.6083  -29.6038  -15.3308 Br  0  0  0  0  0  0  0  0  0  0  0  0
  -19.8923  -24.2157  -11.8622 H   0  0  0  0  0  0  0  0  0  0  0  0
  -21.0698  -25.5453  -11.6090 H   0  0  0  0  0  0  0  0  0  0  0  0
  -21.0984  -24.6202  -13.1300 H   0  0  0  0  0  0  0  0  0  0  0  0
  -18.5135  -31.0447  -15.0659 H   0  0  0  0  0  0  0  0  0  0  0  0
  -17.1476  -27.0014  -14.2251 H   0  0  0  0  0  0  0  0  0  0  0  0
  -18.5432  -25.8409  -12.8327 H   0  0  0  0  0  0  0  0  0  0  0  0
  -20.4343  -29.6349  -14.1912 H   0  0  0  0  0  0  0  0  0  0  0  0
  1  7  1  0  0  0  0
  1 11  1  0  0  0  0
  1 12  1  0  0  0  0
  1 13  1  0  0  0  0
  2  5  1  0  0  0  0
  2  8  1  0  0  0  0
  2 14  1  0  0  0  0
  3  5  1  0  0  0  0
  3  6  1  0  0  0  0
  3 15  1  0  0  0  0
  4  7  1  0  0  0  0
  4  9  2  0  0  0  0
  5 10  1  6  0  0  0
  6  4  1  6  0  0  0
  6  8  1  0  0  0  0
  7 16  1  0  0  0  0
  8 17  1  0  0  0  0
M  CHG  1   8   1
M  END
$$$$
