Q9P
 OpenBabel04161911203D

 27 29  0  0  1  0  0  0  0  0999 V2000
    6.0747   21.1693  -18.6991 N   0  0  0  0  0  0  0  0  0  0  0  0
    5.2839   20.2535  -19.3371 C   0  0  0  0  0  0  0  0  0  0  0  0
    4.2271   22.7243  -18.7411 C   0  0  2  0  0  0  0  0  0  0  0  0
    3.3110   21.6674  -19.2774 C   0  0  0  0  0  0  0  0  0  0  0  0
    4.4204   18.5816  -20.3003 C   0  0  0  0  0  0  0  0  0  0  0  0
    3.6644   25.0705  -19.1875 C   0  0  0  0  0  0  0  0  0  0  0  0
    4.1354   27.3791  -19.6287 C   0  0  0  0  0  0  0  0  0  0  0  0
    3.3346   25.9616  -21.4151 C   0  0  0  0  0  0  0  0  0  0  0  0
    2.1814   21.8882  -19.5676 O   0  0  0  0  0  0  0  0  0  0  0  0
    3.9787   20.5012  -19.6135 N   0  3  0  0  0  0  0  0  0  0  0  0
    3.3950   19.4421  -20.2435 N   0  0  0  0  0  0  0  0  0  0  0  0
    5.5905   19.0502  -19.7543 N   0  0  0  0  0  0  0  0  0  0  0  0
    5.5783   22.3067  -18.3393 C   0  0  0  0  0  0  0  0  0  0  0  0
    6.6369   23.4045  -17.6041 Cl  0  0  0  0  0  0  0  0  0  0  0  0
    3.6017   23.9564  -18.1763 C   0  0  0  0  0  0  0  0  0  0  0  0
    3.2800   24.8966  -20.5303 C   0  0  0  0  0  0  0  0  0  0  0  0
    3.7573   27.2124  -20.9637 C   0  0  0  0  0  0  0  0  0  0  0  0
    4.0954   26.3138  -18.7554 C   0  0  0  0  0  0  0  0  0  0  0  0
    4.5115   23.1130  -19.6886 H   0  0  0  0  0  0  0  0  0  0  0  0
    4.3282   17.5840  -20.7462 H   0  0  0  0  0  0  0  0  0  0  0  0
    4.4537   28.3471  -19.2748 H   0  0  0  0  0  0  0  0  0  0  0  0
    3.0384   25.8263  -22.4404 H   0  0  0  0  0  0  0  0  0  0  0  0
    4.1708   24.2716  -17.3029 H   0  0  0  0  0  0  0  0  0  0  0  0
    2.5540   23.7910  -17.9470 H   0  0  0  0  0  0  0  0  0  0  0  0
    2.9304   23.9318  -20.8892 H   0  0  0  0  0  0  0  0  0  0  0  0
    3.7923   28.0540  -21.6506 H   0  0  0  0  0  0  0  0  0  0  0  0
    4.3817   26.4471  -17.7187 H   0  0  0  0  0  0  0  0  0  0  0  0
  1  2  1  0  0  0  0
  1 13  2  0  0  0  0
  2 10  1  0  0  0  0
  2 12  2  0  0  0  0
  3  4  1  0  0  0  0
  3 13  1  0  0  0  0
  3 15  1  0  0  0  0
  3 19  1  6  0  0  0
  4  9  2  0  0  0  0
  4 10  1  0  0  0  0
  5 11  2  0  0  0  0
  5 12  1  0  0  0  0
  5 20  1  0  0  0  0
  6 15  1  0  0  0  0
  6 16  2  0  0  0  0
  6 18  1  0  0  0  0
  7 17  1  0  0  0  0
  7 18  2  0  0  0  0
  7 21  1  0  0  0  0
  8 16  1  0  0  0  0
  8 17  2  0  0  0  0
  8 22  1  0  0  0  0
 10 11  1  0  0  0  0
 13 14  1  0  0  0  0
 15 23  1  0  0  0  0
 15 24  1  0  0  0  0
 16 25  1  0  0  0  0
 17 26  1  0  0  0  0
 18 27  1  0  0  0  0
M  CHG  1  10   1
M  END
$$$$
