QZQ
 OpenBabel04161911043D

 80 84  0  0  1  0  0  0  0  0999 V2000
   19.0116   19.7330   17.8417 C   0  0  2  0  0  0  0  0  0  0  0  0
   20.2949   20.6450   17.8817 C   0  0  0  0  0  0  0  0  0  0  0  0
   21.1052   20.8407   16.6214 C   0  0  0  0  0  0  0  0  0  0  0  0
   20.7508   21.2517   18.9976 C   0  0  0  0  0  0  0  0  0  0  0  0
   18.8061   19.0742   19.2112 C   0  0  0  0  0  0  0  0  0  0  0  0
   19.8375   17.9281   19.1684 C   0  0  0  0  0  0  0  0  0  0  0  0
   19.4156   17.2393   17.8625 C   0  0  2  0  0  0  0  0  0  0  0  0
   20.4260   16.4052   17.0586 C   0  0  0  0  0  0  0  0  0  0  0  0
   19.7598   15.8963   15.7371 C   0  0  0  0  0  0  0  0  0  0  0  0
   18.9743   16.9885   14.8702 C   0  0  2  0  0  0  0  0  0  0  0  0
   18.2175   17.9924   15.8497 C   0  0  1  0  0  0  0  0  0  0  0  0
   19.1667   18.4677   16.9498 C   0  0  1  0  0  0  0  0  0  0  0  0
   17.3383   19.0328   15.1880 C   0  0  0  0  0  0  0  0  0  0  0  0
   16.2753   18.3073   14.3619 C   0  0  0  0  0  0  0  0  0  0  0  0
   17.0062   17.5531   13.2348 C   0  0  2  0  0  0  0  0  0  0  0  0
   16.1453   17.3236   11.9527 C   0  0  2  0  0  0  0  0  0  0  0  0
   17.0954   16.7922   10.8385 C   0  0  1  0  0  0  0  0  0  0  0  0
   17.7252   17.8673    9.8289 C   0  0  0  0  0  0  0  0  0  0  0  0
   17.1402   17.4771    8.4377 C   0  0  0  0  0  0  0  0  0  0  0  0
   19.2611   17.7368    9.6470 C   0  0  0  0  0  0  0  0  0  0  0  0
   17.4629   19.3895   10.1331 C   0  0  1  0  0  0  0  0  0  0  0  0
   17.2490   20.1156    8.9095 O   0  0  0  0  0  0  0  0  0  0  0  0
   16.3550   19.7620   11.1056 C   0  0  0  0  0  0  0  0  0  0  0  0
   15.4366   18.6186   11.4545 C   0  0  0  0  0  0  0  0  0  0  0  0
   17.9921   15.6316   11.2893 C   0  0  0  0  0  0  0  0  0  0  0  0
   18.5307   15.5414   12.7096 C   0  0  0  0  0  0  0  0  0  0  0  0
   17.8564   16.3498   13.8369 C   0  0  1  0  0  0  0  0  0  0  0  0
   16.9822   15.3200   14.6144 C   0  0  0  0  0  0  0  0  0  0  0  0
   14.9730   16.3261   12.1287 C   0  0  0  0  0  0  0  0  0  0  0  0
   20.1004   17.7333   14.0817 C   0  0  0  0  0  0  0  0  0  0  0  0
   18.3637   16.1728   18.4099 C   0  0  0  0  0  0  0  0  0  0  0  0
   18.8451   15.3409   19.2588 O   0  0  0  0  0  0  0  0  0  0  0  0
   17.1804   16.2274   17.9919 O   0  0  0  0  0  0  0  0  0  0  0  0
   18.1692   20.3612   17.5392 H   0  0  0  0  0  0  0  0  0  0  0  0
   22.0008   21.4466   16.8043 H   0  0  0  0  0  0  0  0  0  0  0  0
   20.5040   21.3405   15.8575 H   0  0  0  0  0  0  0  0  0  0  0  0
   21.4991   19.9047   16.2213 H   0  0  0  0  0  0  0  0  0  0  0  0
   20.2628   21.1767   19.9614 H   0  0  0  0  0  0  0  0  0  0  0  0
   21.6612   21.8423   18.9966 H   0  0  0  0  0  0  0  0  0  0  0  0
   17.7805   18.6893   19.2844 H   0  0  0  0  0  0  0  0  0  0  0  0
   18.9355   19.7195   20.0796 H   0  0  0  0  0  0  0  0  0  0  0  0
   19.7807   17.3374   20.0801 H   0  0  0  0  0  0  0  0  0  0  0  0
   20.8646   18.3020   19.0943 H   0  0  0  0  0  0  0  0  0  0  0  0
   20.8001   15.5533   17.6321 H   0  0  0  0  0  0  0  0  0  0  0  0
   21.3116   17.0037   16.8075 H   0  0  0  0  0  0  0  0  0  0  0  0
   19.0998   15.0847   16.0424 H   0  0  0  0  0  0  0  0  0  0  0  0
   20.5354   15.4241   15.1201 H   0  0  0  0  0  0  0  0  0  0  0  0
   17.4615   17.3999   16.3350 H   0  0  0  0  0  0  0  0  0  0  0  0
   20.0810   18.6710   16.4121 H   0  0  0  0  0  0  0  0  0  0  0  0
   17.9203   19.7098   14.5562 H   0  0  0  0  0  0  0  0  0  0  0  0
   16.8248   19.6374   15.9423 H   0  0  0  0  0  0  0  0  0  0  0  0
   15.5719   19.0559   14.0029 H   0  0  0  0  0  0  0  0  0  0  0  0
   15.6722   17.6320   14.9813 H   0  0  0  0  0  0  0  0  0  0  0  0
   17.7598   18.2501   12.8720 H   0  0  0  0  0  0  0  0  0  0  0  0
   16.3885   16.2628   10.1874 H   0  0  0  0  0  0  0  0  0  0  0  0
   17.5329   18.0915    7.6235 H   0  0  0  0  0  0  0  0  0  0  0  0
   16.0473   17.5577    8.4367 H   0  0  0  0  0  0  0  0  0  0  0  0
   17.4004   16.4365    8.2019 H   0  0  0  0  0  0  0  0  0  0  0  0
   19.7943   17.9728   10.5739 H   0  0  0  0  0  0  0  0  0  0  0  0
   19.6206   18.4206    8.8675 H   0  0  0  0  0  0  0  0  0  0  0  0
   19.5647   16.7427    9.3081 H   0  0  0  0  0  0  0  0  0  0  0  0
   18.3828   19.8276   10.5431 H   0  0  0  0  0  0  0  0  0  0  0  0
   17.0614   21.0420    9.1396 H   0  0  0  0  0  0  0  0  0  0  0  0
   15.7421   20.5902   10.7141 H   0  0  0  0  0  0  0  0  0  0  0  0
   16.8120   20.1564   12.0240 H   0  0  0  0  0  0  0  0  0  0  0  0
   14.7153   18.9745   12.1969 H   0  0  0  0  0  0  0  0  0  0  0  0
   14.8296   18.3890   10.5704 H   0  0  0  0  0  0  0  0  0  0  0  0
   18.8599   15.5272   10.6397 H   0  0  0  0  0  0  0  0  0  0  0  0
   17.4355   14.7041   11.0979 H   0  0  0  0  0  0  0  0  0  0  0  0
   19.5897   15.7658   12.6415 H   0  0  0  0  0  0  0  0  0  0  0  0
   18.5380   14.4743   12.9784 H   0  0  0  0  0  0  0  0  0  0  0  0
   16.4698   15.7443   15.4806 H   0  0  0  0  0  0  0  0  0  0  0  0
   17.5627   14.4767   14.9860 H   0  0  0  0  0  0  0  0  0  0  0  0
   16.2042   14.8503   14.0045 H   0  0  0  0  0  0  0  0  0  0  0  0
   15.2935   15.3193   12.3827 H   0  0  0  0  0  0  0  0  0  0  0  0
   14.4257   16.2165   11.1818 H   0  0  0  0  0  0  0  0  0  0  0  0
   14.2473   16.6773   12.8675 H   0  0  0  0  0  0  0  0  0  0  0  0
   20.8766   18.1363   14.7346 H   0  0  0  0  0  0  0  0  0  0  0  0
   19.7238   18.5582   13.4745 H   0  0  0  0  0  0  0  0  0  0  0  0
   20.6705   17.0694   13.4282 H   0  0  0  0  0  0  0  0  0  0  0  0
  1  2  1  0  0  0  0
  1  5  1  0  0  0  0
  1 12  1  0  0  0  0
  1 34  1  6  0  0  0
  2  3  1  0  0  0  0
  2  4  2  0  0  0  0
  3 35  1  0  0  0  0
  3 36  1  0  0  0  0
  3 37  1  0  0  0  0
  4 38  1  0  0  0  0
  4 39  1  0  0  0  0
  5  6  1  0  0  0  0
  5 40  1  0  0  0  0
  5 41  1  0  0  0  0
  6  7  1  0  0  0  0
  6 42  1  0  0  0  0
  6 43  1  0  0  0  0
  7  8  1  0  0  0  0
  7 12  1  0  0  0  0
  7 31  1  1  0  0  0
  8  9  1  0  0  0  0
  8 44  1  0  0  0  0
  8 45  1  0  0  0  0
  9 10  1  0  0  0  0
  9 46  1  0  0  0  0
  9 47  1  0  0  0  0
 10 11  1  0  0  0  0
 10 27  1  0  0  0  0
 10 30  1  6  0  0  0
 11 12  1  0  0  0  0
 11 13  1  0  0  0  0
 11 48  1  1  0  0  0
 12 49  1  6  0  0  0
 13 14  1  0  0  0  0
 13 50  1  0  0  0  0
 13 51  1  0  0  0  0
 14 15  1  0  0  0  0
 14 52  1  0  0  0  0
 14 53  1  0  0  0  0
 15 16  1  0  0  0  0
 15 27  1  0  0  0  0
 15 54  1  6  0  0  0
 16 17  1  0  0  0  0
 16 24  1  0  0  0  0
 16 29  1  1  0  0  0
 17 18  1  0  0  0  0
 17 25  1  0  0  0  0
 17 55  1  6  0  0  0
 18 19  1  0  0  0  0
 18 20  1  0  0  0  0
 18 21  1  0  0  0  0
 19 56  1  0  0  0  0
 19 57  1  0  0  0  0
 19 58  1  0  0  0  0
 20 59  1  0  0  0  0
 20 60  1  0  0  0  0
 20 61  1  0  0  0  0
 21 22  1  0  0  0  0
 21 23  1  0  0  0  0
 21 62  1  1  0  0  0
 22 63  1  0  0  0  0
 23 24  1  0  0  0  0
 23 64  1  0  0  0  0
 23 65  1  0  0  0  0
 24 66  1  0  0  0  0
 24 67  1  0  0  0  0
 25 26  1  0  0  0  0
 25 68  1  0  0  0  0
 25 69  1  0  0  0  0
 26 27  1  0  0  0  0
 26 70  1  0  0  0  0
 26 71  1  0  0  0  0
 27 28  1  1  0  0  0
 28 72  1  0  0  0  0
 28 73  1  0  0  0  0
 28 74  1  0  0  0  0
 29 75  1  0  0  0  0
 29 76  1  0  0  0  0
 29 77  1  0  0  0  0
 30 78  1  0  0  0  0
 30 79  1  0  0  0  0
 30 80  1  0  0  0  0
 31 32  2  0  0  0  0
 31 33  1  0  0  0  0
M  END
$$$$
