R47
 OpenBabel04161909483D

 84 87  0  0  1  0  0  0  0  0999 V2000
    9.8771   26.5213    4.2513 O   0  0  0  0  0  0  0  0  0  0  0  0
    6.6376   22.6885    5.5797 N   0  0  0  0  0  0  0  0  0  0  0  0
    7.7911   22.9757    4.8807 O   0  0  0  0  0  0  0  0  0  0  0  0
    8.9471   26.6870    3.4801 C   0  0  0  0  0  0  0  0  0  0  0  0
    8.5567   25.6590    2.4518 C   0  0  2  0  0  0  0  0  0  0  0  0
    8.6890   24.2823    3.0777 C   0  0  0  0  0  0  0  0  0  0  0  0
    6.2164   24.2383    3.9964 C   0  0  0  0  0  0  0  0  0  0  0  0
    5.6806   23.4556    5.0366 C   0  0  0  0  0  0  0  0  0  0  0  0
    4.3052   23.4020    5.5007 C   0  0  0  0  0  0  0  0  0  0  0  0
    3.3199   24.1134    4.8116 C   0  0  0  0  0  0  0  0  0  0  0  0
    2.0035   24.0530    5.2230 C   0  0  0  0  0  0  0  0  0  0  0  0
    1.6394   23.2888    6.3379 C   0  0  0  0  0  0  0  0  0  0  0  0
    2.6286   22.5746    7.0284 C   0  0  0  0  0  0  0  0  0  0  0  0
    3.9483   22.6265    6.6092 C   0  0  0  0  0  0  0  0  0  0  0  0
    7.5514   23.9083    3.9176 C   0  0  0  0  0  0  0  0  0  0  0  0
   -2.3349   20.6092    8.2431 Cl  0  0  0  0  0  0  0  0  0  0  0  0
   -1.6591   22.0573    7.6175 C   0  0  0  0  0  0  0  0  0  0  0  0
   -0.3248   22.0769    7.2555 C   0  0  0  0  0  0  0  0  0  0  0  0
   -2.4503   23.1939    7.4683 C   0  0  0  0  0  0  0  0  0  0  0  0
   -1.9016   24.3648    6.9536 C   0  0  0  0  0  0  0  0  0  0  0  0
   -0.5623   24.3865    6.5971 C   0  0  0  0  0  0  0  0  0  0  0  0
    0.2456   23.2489    6.7480 C   0  0  0  0  0  0  0  0  0  0  0  0
    9.5738   25.8039    1.3266 C   0  0  0  0  0  0  0  0  0  0  0  0
    9.1235   24.9485   -0.2378 P   0  0  1  0  0  0  0  0  0  0  0  0
    9.4987   23.4861   -0.0939 O   0  0  0  0  0  0  0  0  0  0  0  0
    7.6761   25.3007   -0.5217 O   0  0  0  0  0  0  0  0  0  0  0  0
   10.2264   25.7373   -1.4202 C   0  0  0  0  0  0  0  0  0  0  0  0
    9.7221   26.3700   -2.5615 C   0  0  0  0  0  0  0  0  0  0  0  0
   10.5941   26.9600   -3.4741 C   0  0  0  0  0  0  0  0  0  0  0  0
   11.9668   26.9220   -3.2355 C   0  0  0  0  0  0  0  0  0  0  0  0
   13.1654   27.7144   -4.4615 Br  0  0  0  0  0  0  0  0  0  0  0  0
   12.4789   26.3023   -2.1000 C   0  0  0  0  0  0  0  0  0  0  0  0
   11.6084   25.7079   -1.1954 C   0  0  0  0  0  0  0  0  0  0  0  0
    8.2496   27.8455    3.4087 N   0  0  0  0  0  0  0  0  0  0  0  0
    8.6089   28.9575    4.2528 C   0  0  2  0  0  0  0  0  0  0  0  0
    7.8212   28.9318    5.5608 C   0  0  0  0  0  0  0  0  0  0  0  0
    6.6598   28.5567    5.6728 O   0  0  0  0  0  0  0  0  0  0  0  0
    8.3494   30.2746    3.5358 C   0  0  0  0  0  0  0  0  0  0  0  0
    9.2982   30.4478    2.3585 C   0  0  0  0  0  0  0  0  0  0  0  0
    9.2093   31.8515    1.7741 C   0  0  0  0  0  0  0  0  0  0  0  0
    8.5022   31.9731    0.7334 O   0  0  0  0  0  0  0  0  0  0  0  0
    9.8704   32.7308    2.3983 O   0  0  0  0  0  0  0  0  0  0  0  0
    8.5048   29.5322    6.5973 N   0  0  0  0  0  0  0  0  0  0  0  0
    7.9235   29.6311    7.9281 C   0  0  2  0  0  0  0  0  0  0  0  0
    6.7715   30.6415    7.8913 C   0  0  0  0  0  0  0  0  0  0  0  0
    5.7560   30.5298    8.5746 O   0  0  0  0  0  0  0  0  0  0  0  0
    9.0375   30.0967    8.8478 C   0  0  0  0  0  0  0  0  0  0  0  0
    8.6402   30.1618   10.3061 C   0  0  0  0  0  0  0  0  0  0  0  0
    9.9380   30.3389   11.1020 C   0  0  0  0  0  0  0  0  0  0  0  0
   10.3378   31.5336   11.2061 O   0  0  0  0  0  0  0  0  0  0  0  0
   10.4385   29.2835   11.5879 O   0  0  0  0  0  0  0  0  0  0  0  0
    7.0074   31.7808    7.1690 N   0  0  0  0  0  0  0  0  0  0  0  0
    7.5434   25.8527    2.0816 H   0  0  0  0  0  0  0  0  0  0  0  0
    9.5998   24.2511    3.6903 H   0  0  0  0  0  0  0  0  0  0  0  0
    8.8027   23.5424    2.2887 H   0  0  0  0  0  0  0  0  0  0  0  0
    5.7013   24.9508    3.3511 H   0  0  0  0  0  0  0  0  0  0  0  0
    3.5678   24.7089    3.9406 H   0  0  0  0  0  0  0  0  0  0  0  0
    1.2520   24.6018    4.6625 H   0  0  0  0  0  0  0  0  0  0  0  0
    2.3657   21.9733    7.8993 H   0  0  0  0  0  0  0  0  0  0  0  0
    4.7046   22.0569    7.1493 H   0  0  0  0  0  0  0  0  0  0  0  0
    0.2876   21.1826    7.3599 H   0  0  0  0  0  0  0  0  0  0  0  0
   -3.4958   23.1722    7.7534 H   0  0  0  0  0  0  0  0  0  0  0  0
   -2.5061   25.2555    6.8286 H   0  0  0  0  0  0  0  0  0  0  0  0
   -0.1363   25.3031    6.1936 H   0  0  0  0  0  0  0  0  0  0  0  0
   10.5377   25.4039    1.6708 H   0  0  0  0  0  0  0  0  0  0  0  0
    9.7210   26.8680    1.1026 H   0  0  0  0  0  0  0  0  0  0  0  0
    8.6449   26.3909   -2.7212 H   0  0  0  0  0  0  0  0  0  0  0  0
   10.1958   27.4452   -4.3577 H   0  0  0  0  0  0  0  0  0  0  0  0
   13.5455   26.2764   -1.9117 H   0  0  0  0  0  0  0  0  0  0  0  0
   11.9896   25.2106   -0.3073 H   0  0  0  0  0  0  0  0  0  0  0  0
    7.4816   27.9434    2.7540 H   0  0  0  0  0  0  0  0  0  0  0  0
    9.6718   28.8725    4.5178 H   0  0  0  0  0  0  0  0  0  0  0  0
    8.4666   31.1028    4.2419 H   0  0  0  0  0  0  0  0  0  0  0  0
    7.3120   30.2832    3.1770 H   0  0  0  0  0  0  0  0  0  0  0  0
    9.0734   29.6975    1.5923 H   0  0  0  0  0  0  0  0  0  0  0  0
   10.3266   30.2820    2.7019 H   0  0  0  0  0  0  0  0  0  0  0  0
    9.4682   29.8176    6.4618 H   0  0  0  0  0  0  0  0  0  0  0  0
    7.5086   28.6609    8.2220 H   0  0  0  0  0  0  0  0  0  0  0  0
    9.3787   31.0868    8.5138 H   0  0  0  0  0  0  0  0  0  0  0  0
    9.8770   29.4012    8.7292 H   0  0  0  0  0  0  0  0  0  0  0  0
    8.1239   29.2444   10.6037 H   0  0  0  0  0  0  0  0  0  0  0  0
    7.9596   31.0079   10.4648 H   0  0  0  0  0  0  0  0  0  0  0  0
    6.2887   32.4833    7.1201 H   0  0  0  0  0  0  0  0  0  0  0  0
    7.8520   31.8785    6.6203 H   0  0  0  0  0  0  0  0  0  0  0  0
  1  4  2  0  0  0  0
  2  3  1  0  0  0  0
  2  8  2  0  0  0  0
  3 15  1  0  0  0  0
  4  5  1  0  0  0  0
  4 34  1  0  0  0  0
  5  6  1  0  0  0  0
  5 23  1  0  0  0  0
  5 53  1  6  0  0  0
  6 15  1  0  0  0  0
  6 54  1  0  0  0  0
  6 55  1  0  0  0  0
  7  8  1  0  0  0  0
  7 15  2  0  0  0  0
  7 56  1  0  0  0  0
  8  9  1  0  0  0  0
  9 10  2  0  0  0  0
  9 14  1  0  0  0  0
 10 11  1  0  0  0  0
 10 57  1  0  0  0  0
 11 12  2  0  0  0  0
 11 58  1  0  0  0  0
 12 13  1  0  0  0  0
 12 22  1  0  0  0  0
 13 14  2  0  0  0  0
 13 59  1  0  0  0  0
 14 60  1  0  0  0  0
 16 17  1  0  0  0  0
 17 18  2  0  0  0  0
 17 19  1  0  0  0  0
 18 22  1  0  0  0  0
 18 61  1  0  0  0  0
 19 20  2  0  0  0  0
 19 62  1  0  0  0  0
 20 21  1  0  0  0  0
 20 63  1  0  0  0  0
 21 22  2  0  0  0  0
 21 64  1  0  0  0  0
 23 65  1  0  0  0  0
 23 66  1  0  0  0  0
 24 23  1  1  0  0  0
 24 25  2  0  0  0  0
 24 26  1  0  0  0  0
 24 27  1  0  0  0  0
 27 28  2  0  0  0  0
 27 33  1  0  0  0  0
 28 29  1  0  0  0  0
 28 67  1  0  0  0  0
 29 30  2  0  0  0  0
 29 68  1  0  0  0  0
 30 31  1  0  0  0  0
 30 32  1  0  0  0  0
 32 33  2  0  0  0  0
 32 69  1  0  0  0  0
 33 70  1  0  0  0  0
 34 35  1  0  0  0  0
 34 71  1  0  0  0  0
 35 36  1  0  0  0  0
 35 38  1  0  0  0  0
 35 72  1  1  0  0  0
 36 37  2  0  0  0  0
 36 43  1  0  0  0  0
 38 39  1  0  0  0  0
 38 73  1  0  0  0  0
 38 74  1  0  0  0  0
 39 40  1  0  0  0  0
 39 75  1  0  0  0  0
 39 76  1  0  0  0  0
 40 41  2  0  0  0  0
 40 42  1  0  0  0  0
 43 44  1  0  0  0  0
 43 77  1  0  0  0  0
 44 45  1  0  0  0  0
 44 47  1  0  0  0  0
 44 78  1  1  0  0  0
 45 46  2  0  0  0  0
 45 52  1  0  0  0  0
 47 48  1  0  0  0  0
 47 79  1  0  0  0  0
 47 80  1  0  0  0  0
 48 49  1  0  0  0  0
 48 81  1  0  0  0  0
 48 82  1  0  0  0  0
 49 50  2  0  0  0  0
 49 51  1  0  0  0  0
 52 83  1  0  0  0  0
 52 84  1  0  0  0  0
M  END
$$$$
