RJE
 OpenBabel04161909363D

 43 45  0  0  0  0  0  0  0  0999 V2000
   -8.4146    9.8609  -14.4736 C   0  0  0  0  0  0  0  0  0  0  0  0
   -7.6961   10.7988  -15.3091 N   0  0  0  0  0  0  0  0  0  0  0  0
   -7.8089   10.7904  -16.6809 C   0  0  0  0  0  0  0  0  0  0  0  0
   -8.5556    9.8487  -17.2852 N   0  0  0  0  0  0  0  0  0  0  0  0
   -8.6414    9.8778  -18.6307 C   0  0  0  0  0  0  0  0  0  0  0  0
   -9.4252    8.8687  -19.1656 O   0  0  0  0  0  0  0  0  0  0  0  0
   -9.5310    8.9334  -20.5928 C   0  0  0  0  0  0  0  0  0  0  0  0
  -10.9901    9.1571  -20.9669 C   0  0  0  0  0  0  0  0  0  0  0  0
  -11.1929   10.5179  -21.3885 O   0  0  0  0  0  0  0  0  0  0  0  0
  -11.1729   10.7155  -22.7986 C   0  0  0  0  0  0  0  0  0  0  0  0
   -8.0130   10.7516  -19.4548 N   0  0  0  0  0  0  0  0  0  0  0  0
   -7.2975   11.6710  -18.8248 C   0  0  0  0  0  0  0  0  0  0  0  0
   -6.5357   12.7094  -19.3772 N   0  3  0  0  0  0  0  0  0  0  0  0
   -6.2036   12.9725  -20.7511 C   0  0  0  0  0  0  0  0  0  0  0  0
   -7.2297   13.6596  -21.6031 C   0  0  0  0  0  0  0  0  0  0  0  0
   -8.5303   13.1771  -21.7292 C   0  0  0  0  0  0  0  0  0  0  0  0
   -9.4299   13.8075  -22.5794 C   0  0  0  0  0  0  0  0  0  0  0  0
   -9.0292   14.9095  -23.3283 C   0  0  0  0  0  0  0  0  0  0  0  0
   -7.7320   15.3776  -23.2336 C   0  0  0  0  0  0  0  0  0  0  0  0
   -6.8292   14.7519  -22.3854 C   0  0  0  0  0  0  0  0  0  0  0  0
   -5.9221   13.3949  -18.3352 C   0  0  0  0  0  0  0  0  0  0  0  0
   -5.1546   14.3100  -18.4141 O   0  0  0  0  0  0  0  0  0  0  0  0
   -6.3385   12.7946  -17.1367 N   0  3  0  0  0  0  0  0  0  0  0  0
   -7.1693   11.7319  -17.4568 C   0  0  0  0  0  0  0  0  0  0  0  0
   -8.1812   10.0489  -13.4138 H   0  0  0  0  0  0  0  0  0  0  0  0
   -8.1325    8.8246  -14.6968 H   0  0  0  0  0  0  0  0  0  0  0  0
   -9.4996    9.9687  -14.5974 H   0  0  0  0  0  0  0  0  0  0  0  0
   -7.0938   11.4731  -14.8675 H   0  0  0  0  0  0  0  0  0  0  0  0
   -9.1752    7.9831  -21.0098 H   0  0  0  0  0  0  0  0  0  0  0  0
   -8.9188    9.7257  -21.0144 H   0  0  0  0  0  0  0  0  0  0  0  0
  -11.6254    8.9844  -20.0841 H   0  0  0  0  0  0  0  0  0  0  0  0
  -11.2975    8.4612  -21.7543 H   0  0  0  0  0  0  0  0  0  0  0  0
  -11.3321   11.7773  -22.9985 H   0  0  0  0  0  0  0  0  0  0  0  0
  -11.9917   10.1748  -23.2778 H   0  0  0  0  0  0  0  0  0  0  0  0
  -10.2171   10.4202  -23.2378 H   0  0  0  0  0  0  0  0  0  0  0  0
   -5.9468   12.0335  -21.2324 H   0  0  0  0  0  0  0  0  0  0  0  0
   -5.3161   13.6244  -20.7646 H   0  0  0  0  0  0  0  0  0  0  0  0
   -8.8458   12.3132  -21.1580 H   0  0  0  0  0  0  0  0  0  0  0  0
  -10.4454   13.4548  -22.6554 H   0  0  0  0  0  0  0  0  0  0  0  0
   -9.7389   15.3990  -23.9871 H   0  0  0  0  0  0  0  0  0  0  0  0
   -7.4208   16.2356  -23.8194 H   0  0  0  0  0  0  0  0  0  0  0  0
   -5.8059   15.1192  -22.3224 H   0  0  0  0  0  0  0  0  0  0  0  0
   -6.0508   13.1164  -16.2340 H   0  0  0  0  0  0  0  0  0  0  0  0
  1  2  1  0  0  0  0
  1 25  1  0  0  0  0
  1 26  1  0  0  0  0
  1 27  1  0  0  0  0
  2  3  1  0  0  0  0
  2 28  1  0  0  0  0
  3  4  2  0  0  0  0
  3 24  1  0  0  0  0
  4  5  1  0  0  0  0
  5  6  1  0  0  0  0
  5 11  2  0  0  0  0
  6  7  1  0  0  0  0
  7  8  1  0  0  0  0
  7 29  1  0  0  0  0
  7 30  1  0  0  0  0
  8  9  1  0  0  0  0
  8 31  1  0  0  0  0
  8 32  1  0  0  0  0
  9 10  1  0  0  0  0
 10 33  1  0  0  0  0
 10 34  1  0  0  0  0
 10 35  1  0  0  0  0
 11 12  1  0  0  0  0
 12 13  1  0  0  0  0
 12 24  2  0  0  0  0
 13 14  1  0  0  0  0
 13 21  1  0  0  0  0
 14 15  1  0  0  0  0
 14 36  1  0  0  0  0
 14 37  1  0  0  0  0
 15 16  2  0  0  0  0
 15 20  1  0  0  0  0
 16 17  1  0  0  0  0
 16 38  1  0  0  0  0
 17 18  2  0  0  0  0
 17 39  1  0  0  0  0
 18 19  1  0  0  0  0
 18 40  1  0  0  0  0
 19 20  2  0  0  0  0
 19 41  1  0  0  0  0
 20 42  1  0  0  0  0
 21 22  2  0  0  0  0
 21 23  1  0  0  0  0
 23 24  1  0  0  0  0
 23 43  1  0  0  0  0
M  CHG  2  13   1  23   1
M  END
$$$$
