RNE
 OpenBabel04161910293D

 53 53  0  0  0  0  0  0  0  0999 V2000
   -1.5978   -1.5244    4.2448 N   0  3  0  0  0  0  0  0  0  0  0  0
   -1.8199   -0.3413    5.1047 C   0  0  0  0  0  0  0  0  0  0  0  0
   -1.3407   -0.6405    6.4817 C   0  0  0  0  0  0  0  0  0  0  0  0
   -0.4256    0.0143    7.2345 C   0  0  0  0  0  0  0  0  0  0  0  0
   -0.0635   -0.6139    8.5015 C   0  0  0  0  0  0  0  0  0  0  0  0
    1.0791   -0.4366    9.1864 C   0  0  0  0  0  0  0  0  0  0  0  0
    1.4105   -1.2488   10.3336 C   0  0  0  0  0  0  0  0  0  0  0  0
    2.4961   -1.1558   11.1347 C   0  0  0  0  0  0  0  0  0  0  0  0
    2.6310   -2.1439   12.2155 C   0  0  0  0  0  0  0  0  0  0  0  0
    3.6338   -2.2511   13.1044 C   0  0  0  0  0  0  0  0  0  0  0  0
    3.7391   -3.1463   14.2770 C   0  0  0  0  0  0  0  0  0  0  0  0
    4.5258   -2.7735   15.3273 C   0  0  0  0  0  0  0  0  0  0  0  0
    4.6350   -3.5708   16.6211 C   0  0  0  0  0  0  0  0  0  0  0  0
    3.6562   -4.7271   16.7571 C   0  0  0  0  0  0  0  0  0  0  0  0
    3.5219   -5.4425   15.4279 C   0  0  0  0  0  0  0  0  0  0  0  0
    2.9682   -4.4999   14.3126 C   0  0  0  0  0  0  0  0  0  0  0  0
    3.1186   -5.3115   13.0065 C   0  0  0  0  0  0  0  0  0  0  0  0
    1.4672   -4.2747   14.6118 C   0  0  0  0  0  0  0  0  0  0  0  0
    5.3662   -1.5108   15.4005 C   0  0  0  0  0  0  0  0  0  0  0  0
    3.5433   -0.0740   11.0111 C   0  0  0  0  0  0  0  0  0  0  0  0
    0.2460    1.3035    6.8361 C   0  0  0  0  0  0  0  0  0  0  0  0
   -1.9264   -1.3673    3.2851 H   0  0  0  0  0  0  0  0  0  0  0  0
   -0.5942   -1.7525    4.2035 H   0  0  0  0  0  0  0  0  0  0  0  0
   -2.8957   -0.1443    5.1008 H   0  0  0  0  0  0  0  0  0  0  0  0
   -1.3015    0.4864    4.6169 H   0  0  0  0  0  0  0  0  0  0  0  0
   -1.7773   -1.5464    6.9065 H   0  0  0  0  0  0  0  0  0  0  0  0
   -0.7646   -1.3545    8.8880 H   0  0  0  0  0  0  0  0  0  0  0  0
    1.8222    0.2783    8.8322 H   0  0  0  0  0  0  0  0  0  0  0  0
    0.7013   -2.0520   10.5409 H   0  0  0  0  0  0  0  0  0  0  0  0
    1.8010   -2.8317   12.2853 H   0  0  0  0  0  0  0  0  0  0  0  0
    4.4513   -1.5540   12.9728 H   0  0  0  0  0  0  0  0  0  0  0  0
    4.4811   -2.9033   17.4788 H   0  0  0  0  0  0  0  0  0  0  0  0
    5.6577   -3.9601   16.7073 H   0  0  0  0  0  0  0  0  0  0  0  0
    2.6834   -4.3572   17.0990 H   0  0  0  0  0  0  0  0  0  0  0  0
    4.0010   -5.4262   17.5279 H   0  0  0  0  0  0  0  0  0  0  0  0
    2.8665   -6.3147   15.5508 H   0  0  0  0  0  0  0  0  0  0  0  0
    4.5057   -5.8398   15.1414 H   0  0  0  0  0  0  0  0  0  0  0  0
    2.7418   -4.7900   12.1264 H   0  0  0  0  0  0  0  0  0  0  0  0
    2.5580   -6.2520   13.0718 H   0  0  0  0  0  0  0  0  0  0  0  0
    4.1683   -5.5628   12.8159 H   0  0  0  0  0  0  0  0  0  0  0  0
    1.3124   -3.7031   15.5326 H   0  0  0  0  0  0  0  0  0  0  0  0
    0.9458   -5.2328   14.7227 H   0  0  0  0  0  0  0  0  0  0  0  0
    0.9456   -3.7365   13.8210 H   0  0  0  0  0  0  0  0  0  0  0  0
    5.3376   -0.8800   14.5126 H   0  0  0  0  0  0  0  0  0  0  0  0
    6.4180   -1.7720   15.5562 H   0  0  0  0  0  0  0  0  0  0  0  0
    5.0282   -0.8817   16.2283 H   0  0  0  0  0  0  0  0  0  0  0  0
    3.3630    0.6002   10.1711 H   0  0  0  0  0  0  0  0  0  0  0  0
    4.5394   -0.5015   10.8599 H   0  0  0  0  0  0  0  0  0  0  0  0
    3.5499    0.5475   11.9123 H   0  0  0  0  0  0  0  0  0  0  0  0
   -0.1417    1.7133    5.8996 H   0  0  0  0  0  0  0  0  0  0  0  0
    1.3231    1.1641    6.7032 H   0  0  0  0  0  0  0  0  0  0  0  0
    0.0814    2.0735    7.5992 H   0  0  0  0  0  0  0  0  0  0  0  0
   -2.0858   -2.3488    4.6151 H   0  0  0  0  0  0  0  0  0  0  0  0
  1  2  1  0  0  0  0
  1 22  1  0  0  0  0
  1 23  1  0  0  0  0
  1 53  1  0  0  0  0
  2  3  1  0  0  0  0
  2 24  1  0  0  0  0
  2 25  1  0  0  0  0
  3  4  2  0  0  0  0
  3 26  1  0  0  0  0
  4  5  1  0  0  0  0
  4 21  1  0  0  0  0
  5  6  2  0  0  0  0
  5 27  1  0  0  0  0
  6  7  1  0  0  0  0
  6 28  1  0  0  0  0
  7  8  2  0  0  0  0
  7 29  1  0  0  0  0
  8  9  1  0  0  0  0
  8 20  1  0  0  0  0
  9 10  2  0  0  0  0
  9 30  1  0  0  0  0
 10 11  1  0  0  0  0
 10 31  1  0  0  0  0
 11 12  2  0  0  0  0
 11 16  1  0  0  0  0
 12 13  1  0  0  0  0
 12 19  1  0  0  0  0
 13 14  1  0  0  0  0
 13 32  1  0  0  0  0
 13 33  1  0  0  0  0
 14 15  1  0  0  0  0
 14 34  1  0  0  0  0
 14 35  1  0  0  0  0
 15 16  1  0  0  0  0
 15 36  1  0  0  0  0
 15 37  1  0  0  0  0
 16 17  1  0  0  0  0
 16 18  1  0  0  0  0
 17 38  1  0  0  0  0
 17 39  1  0  0  0  0
 17 40  1  0  0  0  0
 18 41  1  0  0  0  0
 18 42  1  0  0  0  0
 18 43  1  0  0  0  0
 19 44  1  0  0  0  0
 19 45  1  0  0  0  0
 19 46  1  0  0  0  0
 20 47  1  0  0  0  0
 20 48  1  0  0  0  0
 20 49  1  0  0  0  0
 21 50  1  0  0  0  0
 21 51  1  0  0  0  0
 21 52  1  0  0  0  0
M  CHG  1   1   1
M  END
$$$$
