ROC
 OpenBabel04161910573D

100104  0  0  1  0  0  0  0  0999 V2000
   -3.0395  -23.3113   61.1846 C   0  0  0  0  0  0  0  0  0  0  0  0
   -2.7161  -22.4904   62.0355 O   0  0  0  0  0  0  0  0  0  0  0  0
   -4.1285  -25.4137   60.5614 N   0  0  0  0  0  0  0  0  0  0  0  0
   -4.0043  -24.4290   61.4965 C   0  0  0  0  0  0  0  0  0  0  0  0
   -4.7237  -24.4082   62.6858 C   0  0  0  0  0  0  0  0  0  0  0  0
   -5.6174  -25.4488   62.9327 C   0  0  0  0  0  0  0  0  0  0  0  0
   -6.6383  -27.5653   62.2328 C   0  0  0  0  0  0  0  0  0  0  0  0
   -6.7519  -28.5980   61.3047 C   0  0  0  0  0  0  0  0  0  0  0  0
   -5.9873  -28.5552   60.1487 C   0  0  0  0  0  0  0  0  0  0  0  0
   -5.1159  -27.4783   59.9217 C   0  0  0  0  0  0  0  0  0  0  0  0
   -5.7569  -26.4884   62.0045 C   0  0  0  0  0  0  0  0  0  0  0  0
   -4.9805  -26.4300   60.8255 C   0  0  0  0  0  0  0  0  0  0  0  0
   -2.5638  -23.2631   59.8868 N   0  0  0  0  0  0  0  0  0  0  0  0
   -1.6300  -22.2378   59.4236 C   0  0  2  0  0  0  0  0  0  0  0  0
   -2.2526  -21.5463   58.1912 C   0  0  0  0  0  0  0  0  0  0  0  0
   -2.2048  -22.0439   57.0612 O   0  0  0  0  0  0  0  0  0  0  0  0
   -0.2982  -22.8648   59.0086 C   0  0  0  0  0  0  0  0  0  0  0  0
    0.4983  -23.2615   60.2231 C   0  0  0  0  0  0  0  0  0  0  0  0
    0.8853  -22.4381   61.0591 O   0  0  0  0  0  0  0  0  0  0  0  0
    0.8143  -24.5767   60.3452 N   0  0  0  0  0  0  0  0  0  0  0  0
   -2.9809  -18.3129   57.1587 C   0  0  1  0  0  0  0  0  0  0  0  0
   -3.2048  -17.4448   58.2693 O   0  0  0  0  0  0  0  0  0  0  0  0
   -3.6731  -19.6720   57.3907 C   0  0  1  0  0  0  0  0  0  0  0  0
   -2.9227  -20.3739   58.4306 N   0  0  0  0  0  0  0  0  0  0  0  0
   -5.1590  -19.5026   57.7593 C   0  0  0  0  0  0  0  0  0  0  0  0
   -5.7596  -20.7678   58.3042 C   0  0  0  0  0  0  0  0  0  0  0  0
   -6.1635  -21.7917   57.4415 C   0  0  0  0  0  0  0  0  0  0  0  0
   -5.8513  -20.9537   59.6900 C   0  0  0  0  0  0  0  0  0  0  0  0
   -6.6757  -22.9782   57.9615 C   0  0  0  0  0  0  0  0  0  0  0  0
   -6.3596  -22.1419   60.2044 C   0  0  0  0  0  0  0  0  0  0  0  0
   -6.7730  -23.1535   59.3407 C   0  0  0  0  0  0  0  0  0  0  0  0
   -2.6870  -18.1891   54.6836 N   0  3  1  0  0  0  0  0  0  0  0  0
   -3.4419  -17.6269   55.8702 C   0  0  0  0  0  0  0  0  0  0  0  0
   -3.4654  -18.0193   53.3856 C   0  0  2  0  0  0  0  0  0  0  0  0
   -4.8343  -18.6779   53.4640 C   0  0  0  0  0  0  0  0  0  0  0  0
   -4.9721  -19.7337   54.0761 O   0  0  0  0  0  0  0  0  0  0  0  0
   -2.7109  -18.6701   52.2430 C   0  0  0  0  0  0  0  0  0  0  0  0
   -1.3050  -18.0894   52.1152 C   0  0  2  0  0  0  0  0  0  0  0  0
   -0.5569  -18.7730   50.9705 C   0  0  0  0  0  0  0  0  0  0  0  0
   -0.2298  -20.2300   51.2867 C   0  0  0  0  0  0  0  0  0  0  0  0
    0.5531  -20.3545   52.5881 C   0  0  0  0  0  0  0  0  0  0  0  0
   -0.1321  -19.6580   53.7554 C   0  0  0  0  0  0  0  0  0  0  0  0
   -0.5253  -18.2081   53.4339 C   0  0  2  0  0  0  0  0  0  0  0  0
   -1.3019  -17.6063   54.5970 C   0  0  0  0  0  0  0  0  0  0  0  0
   -5.8339  -17.9381   52.8789 N   0  0  0  0  0  0  0  0  0  0  0  0
   -7.2411  -18.3354   52.8901 C   0  0  0  0  0  0  0  0  0  0  0  0
   -7.4194  -19.6671   52.1565 C   0  0  0  0  0  0  0  0  0  0  0  0
   -7.7380  -18.4401   54.3354 C   0  0  0  0  0  0  0  0  0  0  0  0
   -8.0566  -17.2670   52.1474 C   0  0  0  0  0  0  0  0  0  0  0  0
   -4.6127  -23.6005   63.4035 H   0  0  0  0  0  0  0  0  0  0  0  0
   -6.1985  -25.4517   63.8513 H   0  0  0  0  0  0  0  0  0  0  0  0
   -7.2356  -27.6070   63.1406 H   0  0  0  0  0  0  0  0  0  0  0  0
   -7.4280  -29.4322   61.4897 H   0  0  0  0  0  0  0  0  0  0  0  0
   -6.0607  -29.3593   59.4187 H   0  0  0  0  0  0  0  0  0  0  0  0
   -4.5196  -27.4612   59.0139 H   0  0  0  0  0  0  0  0  0  0  0  0
   -2.9380  -23.9428   59.2282 H   0  0  0  0  0  0  0  0  0  0  0  0
   -1.4704  -21.4812   60.2016 H   0  0  0  0  0  0  0  0  0  0  0  0
    0.3086  -22.1390   58.4545 H   0  0  0  0  0  0  0  0  0  0  0  0
   -0.4543  -23.7231   58.3469 H   0  0  0  0  0  0  0  0  0  0  0  0
    1.2938  -24.8682   61.1804 H   0  0  0  0  0  0  0  0  0  0  0  0
    0.4812  -25.2992   59.7118 H   0  0  0  0  0  0  0  0  0  0  0  0
   -1.9024  -18.4939   57.1240 H   0  0  0  0  0  0  0  0  0  0  0  0
   -2.6931  -16.6242   58.1525 H   0  0  0  0  0  0  0  0  0  0  0  0
   -3.6172  -20.2681   56.4682 H   0  0  0  0  0  0  0  0  0  0  0  0
   -3.0085  -20.0239   59.3840 H   0  0  0  0  0  0  0  0  0  0  0  0
   -5.7355  -19.1856   56.8818 H   0  0  0  0  0  0  0  0  0  0  0  0
   -5.2843  -18.7013   58.4959 H   0  0  0  0  0  0  0  0  0  0  0  0
   -6.0718  -21.6762   56.3637 H   0  0  0  0  0  0  0  0  0  0  0  0
   -5.5113  -20.1811   60.3768 H   0  0  0  0  0  0  0  0  0  0  0  0
   -6.9990  -23.7692   57.2905 H   0  0  0  0  0  0  0  0  0  0  0  0
   -6.4264  -22.2801   61.2796 H   0  0  0  0  0  0  0  0  0  0  0  0
   -7.1667  -24.0832   59.7431 H   0  0  0  0  0  0  0  0  0  0  0  0
   -3.2502  -16.5479   55.8926 H   0  0  0  0  0  0  0  0  0  0  0  0
   -4.5169  -17.7436   55.7185 H   0  0  0  0  0  0  0  0  0  0  0  0
   -3.5715  -16.9413   53.2327 H   0  0  0  0  0  0  0  0  0  0  0  0
   -3.2588  -18.5149   51.3051 H   0  0  0  0  0  0  0  0  0  0  0  0
   -2.6811  -19.7566   52.3931 H   0  0  0  0  0  0  0  0  0  0  0  0
   -1.4108  -17.0220   51.8732 H   0  0  0  0  0  0  0  0  0  0  0  0
    0.3742  -18.2273   50.7758 H   0  0  0  0  0  0  0  0  0  0  0  0
   -1.1552  -18.7218   50.0535 H   0  0  0  0  0  0  0  0  0  0  0  0
    0.3489  -20.6622   50.4652 H   0  0  0  0  0  0  0  0  0  0  0  0
   -1.1504  -20.8213   51.3552 H   0  0  0  0  0  0  0  0  0  0  0  0
    1.5515  -19.9251   52.4494 H   0  0  0  0  0  0  0  0  0  0  0  0
    0.6855  -21.4139   52.8332 H   0  0  0  0  0  0  0  0  0  0  0  0
    0.5383  -19.6636   54.6236 H   0  0  0  0  0  0  0  0  0  0  0  0
   -1.0106  -20.2454   54.0444 H   0  0  0  0  0  0  0  0  0  0  0  0
    0.3989  -17.6238   53.3309 H   0  0  0  0  0  0  0  0  0  0  0  0
   -0.7851  -17.8086   55.5390 H   0  0  0  0  0  0  0  0  0  0  0  0
   -1.4181  -16.5220   54.4894 H   0  0  0  0  0  0  0  0  0  0  0  0
   -5.6181  -17.0524   52.4329 H   0  0  0  0  0  0  0  0  0  0  0  0
   -8.4707  -19.9691   52.1477 H   0  0  0  0  0  0  0  0  0  0  0  0
   -6.8466  -20.4702   52.6282 H   0  0  0  0  0  0  0  0  0  0  0  0
   -7.0749  -19.5848   51.1191 H   0  0  0  0  0  0  0  0  0  0  0  0
   -8.7871  -18.7449   54.3749 H   0  0  0  0  0  0  0  0  0  0  0  0
   -7.6314  -17.4806   54.8554 H   0  0  0  0  0  0  0  0  0  0  0  0
   -7.1657  -19.1776   54.9053 H   0  0  0  0  0  0  0  0  0  0  0  0
   -9.1172  -17.5366   52.1112 H   0  0  0  0  0  0  0  0  0  0  0  0
   -7.7011  -17.1522   51.1164 H   0  0  0  0  0  0  0  0  0  0  0  0
   -7.9678  -16.2886   52.6332 H   0  0  0  0  0  0  0  0  0  0  0  0
   -2.6337  -19.2148   54.8257 H   0  0  0  0  0  0  0  0  0  0  0  0
  1  2  2  0  0  0  0
  1  4  1  0  0  0  0
  1 13  1  0  0  0  0
  3  4  2  0  0  0  0
  3 12  1  0  0  0  0
  4  5  1  0  0  0  0
  5  6  2  0  0  0  0
  5 50  1  0  0  0  0
  6 11  1  0  0  0  0
  6 51  1  0  0  0  0
  7  8  2  0  0  0  0
  7 11  1  0  0  0  0
  7 52  1  0  0  0  0
  8  9  1  0  0  0  0
  8 53  1  0  0  0  0
  9 10  2  0  0  0  0
  9 54  1  0  0  0  0
 10 12  1  0  0  0  0
 10 55  1  0  0  0  0
 11 12  2  0  0  0  0
 13 14  1  0  0  0  0
 13 56  1  0  0  0  0
 14 15  1  0  0  0  0
 14 17  1  0  0  0  0
 14 57  1  1  0  0  0
 15 16  2  0  0  0  0
 15 24  1  0  0  0  0
 17 18  1  0  0  0  0
 17 58  1  0  0  0  0
 17 59  1  0  0  0  0
 18 19  2  0  0  0  0
 18 20  1  0  0  0  0
 20 60  1  0  0  0  0
 20 61  1  0  0  0  0
 21 22  1  0  0  0  0
 21 23  1  0  0  0  0
 21 33  1  0  0  0  0
 21 62  1  6  0  0  0
 22 63  1  0  0  0  0
 23 24  1  0  0  0  0
 23 25  1  0  0  0  0
 23 64  1  6  0  0  0
 24 65  1  0  0  0  0
 25 26  1  0  0  0  0
 25 66  1  0  0  0  0
 25 67  1  0  0  0  0
 26 27  2  0  0  0  0
 26 28  1  0  0  0  0
 27 29  1  0  0  0  0
 27 68  1  0  0  0  0
 28 30  2  0  0  0  0
 28 69  1  0  0  0  0
 29 31  2  0  0  0  0
 29 70  1  0  0  0  0
 30 31  1  0  0  0  0
 30 71  1  0  0  0  0
 31 72  1  0  0  0  0
 32 33  1  0  0  0  0
 32 34  1  0  0  0  0
 32 44  1  0  0  0  0
 32100  1  1  0  0  0
 33 73  1  0  0  0  0
 33 74  1  0  0  0  0
 34 35  1  0  0  0  0
 34 37  1  0  0  0  0
 34 75  1  6  0  0  0
 35 36  2  0  0  0  0
 35 45  1  0  0  0  0
 37 38  1  0  0  0  0
 37 76  1  0  0  0  0
 37 77  1  0  0  0  0
 38 39  1  0  0  0  0
 38 43  1  0  0  0  0
 38 78  1  6  0  0  0
 39 40  1  0  0  0  0
 39 79  1  0  0  0  0
 39 80  1  0  0  0  0
 40 41  1  0  0  0  0
 40 81  1  0  0  0  0
 40 82  1  0  0  0  0
 41 42  1  0  0  0  0
 41 83  1  0  0  0  0
 41 84  1  0  0  0  0
 42 43  1  0  0  0  0
 42 85  1  0  0  0  0
 42 86  1  0  0  0  0
 43 44  1  0  0  0  0
 43 87  1  6  0  0  0
 44 88  1  0  0  0  0
 44 89  1  0  0  0  0
 45 46  1  0  0  0  0
 45 90  1  0  0  0  0
 46 47  1  0  0  0  0
 46 48  1  0  0  0  0
 46 49  1  0  0  0  0
 47 91  1  0  0  0  0
 47 92  1  0  0  0  0
 47 93  1  0  0  0  0
 48 94  1  0  0  0  0
 48 95  1  0  0  0  0
 48 96  1  0  0  0  0
 49 97  1  0  0  0  0
 49 98  1  0  0  0  0
 49 99  1  0  0  0  0
M  CHG  1  32   1
M  END
$$$$
