RPI
 OpenBabel04161910303D

 30 29  0  0  1  0  0  0  0  0999 V2000
   22.2048   27.4675    8.4593 P   0  0  0  0  0  0  0  0  0  0  0  0
   25.4173   26.2632   15.3264 N   0  3  0  0  0  0  0  0  0  0  0  0
   25.3792   27.5030   14.4452 C   0  0  1  0  0  0  0  0  0  0  0  0
   24.5705   27.1515   13.2087 C   0  0  0  0  0  0  0  0  0  0  0  0
   25.3686   26.2549   12.2628 C   0  0  0  0  0  0  0  0  0  0  0  0
   25.8281   27.0573   11.0613 C   0  0  0  0  0  0  0  0  0  0  0  0
   24.7414   27.2754   10.1316 N   0  0  0  0  0  0  0  0  0  0  0  0
   24.8005   27.2495    8.8067 C   0  0  0  0  0  0  0  0  0  0  0  0
   26.0224   27.1274    8.2167 N   0  0  0  0  0  0  0  0  0  0  0  0
   23.7709   27.3517    8.0163 N   0  0  0  0  0  0  0  0  0  0  0  0
   21.8626   26.0590    8.0471 O   0  0  0  0  0  0  0  0  0  0  0  0
   21.9397   28.5591    7.4592 O   0  0  0  0  0  0  0  0  0  0  0  0
   22.4164   27.7583    9.9204 O   0  0  0  0  0  0  0  0  0  0  0  0
   24.8737   28.7295   15.2514 C   0  0  0  0  0  0  0  0  0  0  0  0
   23.7358   29.1707   14.9598 O   0  0  0  0  0  0  0  0  0  0  0  0
   25.6287   28.9677   16.2379 O   0  0  0  0  0  0  0  0  0  0  0  0
   25.9263   26.5437   16.1781 H   0  0  0  0  0  0  0  0  0  0  0  0
   24.4487   26.0743   15.6130 H   0  0  0  0  0  0  0  0  0  0  0  0
   26.4282   27.6977   14.1837 H   0  0  0  0  0  0  0  0  0  0  0  0
   24.2671   28.0709   12.6946 H   0  0  0  0  0  0  0  0  0  0  0  0
   23.6439   26.6409   13.4961 H   0  0  0  0  0  0  0  0  0  0  0  0
   24.7515   25.4109   11.9365 H   0  0  0  0  0  0  0  0  0  0  0  0
   26.2540   25.8315   12.7535 H   0  0  0  0  0  0  0  0  0  0  0  0
   26.6216   26.4794   10.5806 H   0  0  0  0  0  0  0  0  0  0  0  0
   26.2356   28.0274   11.3556 H   0  0  0  0  0  0  0  0  0  0  0  0
   23.7286   27.4566   10.3950 H   0  0  0  0  0  0  0  0  0  0  0  0
   26.0469   27.0870    7.2154 H   0  0  0  0  0  0  0  0  0  0  0  0
   23.7143   27.4294    7.0356 H   0  0  0  0  0  0  0  0  0  0  0  0
   25.8306   25.4459   14.8799 H   0  0  0  0  0  0  0  0  0  0  0  0
   26.8598   27.1455    8.7655 H   0  0  0  0  0  0  0  0  0  0  0  0
  1 10  1  0  0  0  0
  1 11  2  0  0  0  0
  1 12  1  0  0  0  0
  1 13  1  0  0  0  0
  2  3  1  0  0  0  0
  2 17  1  0  0  0  0
  2 18  1  0  0  0  0
  2 29  1  0  0  0  0
  3  4  1  0  0  0  0
  3 14  1  0  0  0  0
  3 19  1  6  0  0  0
  4  5  1  0  0  0  0
  4 20  1  0  0  0  0
  4 21  1  0  0  0  0
  5  6  1  0  0  0  0
  5 22  1  0  0  0  0
  5 23  1  0  0  0  0
  6  7  1  0  0  0  0
  6 24  1  0  0  0  0
  6 25  1  0  0  0  0
  7  8  1  0  0  0  0
  7 26  1  0  0  0  0
  8  9  2  0  0  0  0
  8 10  1  0  0  0  0
  9 27  1  0  0  0  0
  9 30  1  0  0  0  0
 10 28  1  0  0  0  0
 14 15  2  0  0  0  0
 14 16  1  0  0  0  0
M  CHG  1   2   1
M  END
$$$$
