RS2
 OpenBabel04161912273D

 48 50  0  0  0  0  0  0  0  0999 V2000
    6.7189   -7.7524   42.3220 C   0  0  0  0  0  0  0  0  0  0  0  0
    5.3367   -7.8816   42.2346 C   0  0  0  0  0  0  0  0  0  0  0  0
    4.7080   -7.7513   40.9953 C   0  0  0  0  0  0  0  0  0  0  0  0
    5.4620   -7.5409   39.8363 C   0  0  0  0  0  0  0  0  0  0  0  0
    6.8474   -7.4651   39.9211 C   0  0  0  0  0  0  0  0  0  0  0  0
    7.4715   -7.5142   41.1688 C   0  0  0  0  0  0  0  0  0  0  0  0
    7.5895   -7.3124   38.7740 O   0  0  0  0  0  0  0  0  0  0  0  0
    8.1470   -8.4454   38.2025 C   0  0  0  0  0  0  0  0  0  0  0  0
    8.1546   -9.7291   38.7731 C   0  0  0  0  0  0  0  0  0  0  0  0
    8.7281  -10.8056   38.0906 C   0  0  0  0  0  0  0  0  0  0  0  0
    9.2652  -10.5966   36.8213 C   0  0  0  0  0  0  0  0  0  0  0  0
    9.3195   -9.3202   36.2616 C   0  0  0  0  0  0  0  0  0  0  0  0
    8.7628   -8.2430   36.9576 C   0  0  0  0  0  0  0  0  0  0  0  0
    9.7721  -11.9849   35.8636 S   0  0  0  0  0  0  0  0  0  0  0  0
   11.5529  -12.1906   36.1889 C   0  0  0  0  0  0  0  0  0  0  0  0
    9.5799  -11.6954   34.4748 O   0  0  0  0  0  0  0  0  0  0  0  0
    9.0924  -13.1450   36.4447 O   0  0  0  0  0  0  0  0  0  0  0  0
   12.3547  -11.0422   35.4743 C   0  0  0  0  0  0  0  0  0  0  0  0
   12.6224   -9.6981   36.2247 C   0  0  0  0  0  0  0  0  0  0  0  0
   12.9506   -9.6262   37.4002 O   0  0  0  0  0  0  0  0  0  0  0  0
   12.5423   -8.5878   35.4255 N   0  0  0  0  0  0  0  0  0  0  0  0
   12.6475   -7.2752   35.9445 O   0  0  0  0  0  0  0  0  0  0  0  0
   11.8466  -13.5696   35.5169 C   0  0  0  0  0  0  0  0  0  0  0  0
   13.2687  -14.0256   35.7573 C   0  0  0  0  0  0  0  0  0  0  0  0
   13.6160  -13.9676   37.1449 O   0  0  0  0  0  0  0  0  0  0  0  0
   13.3332  -12.7476   37.8447 C   0  0  0  0  0  0  0  0  0  0  0  0
   11.8708  -12.3496   37.6872 C   0  0  0  0  0  0  0  0  0  0  0  0
    7.2103   -7.8366   43.2866 H   0  0  0  0  0  0  0  0  0  0  0  0
    4.7430   -8.0749   43.1252 H   0  0  0  0  0  0  0  0  0  0  0  0
    3.6304   -7.8206   40.9322 H   0  0  0  0  0  0  0  0  0  0  0  0
    4.9674   -7.4564   38.8733 H   0  0  0  0  0  0  0  0  0  0  0  0
    8.5461   -7.3958   41.2360 H   0  0  0  0  0  0  0  0  0  0  0  0
    7.7139   -9.9099   39.7498 H   0  0  0  0  0  0  0  0  0  0  0  0
    8.7626  -11.8021   38.5438 H   0  0  0  0  0  0  0  0  0  0  0  0
    9.7992   -9.1584   35.3022 H   0  0  0  0  0  0  0  0  0  0  0  0
    8.7994   -7.2425   36.5248 H   0  0  0  0  0  0  0  0  0  0  0  0
   11.8420  -10.7957   34.5351 H   0  0  0  0  0  0  0  0  0  0  0  0
   13.3437  -11.4337   35.1961 H   0  0  0  0  0  0  0  0  0  0  0  0
   12.3014   -8.6722   34.4457 H   0  0  0  0  0  0  0  0  0  0  0  0
   13.5461   -7.1940   36.3113 H   0  0  0  0  0  0  0  0  0  0  0  0
   11.6306  -13.5110   34.4403 H   0  0  0  0  0  0  0  0  0  0  0  0
   11.1548  -14.3233   35.9374 H   0  0  0  0  0  0  0  0  0  0  0  0
   13.9700  -13.4211   35.1709 H   0  0  0  0  0  0  0  0  0  0  0  0
   13.3946  -15.0680   35.4204 H   0  0  0  0  0  0  0  0  0  0  0  0
   13.9894  -11.9498   37.4785 H   0  0  0  0  0  0  0  0  0  0  0  0
   13.5756  -12.9042   38.9082 H   0  0  0  0  0  0  0  0  0  0  0  0
   11.2368  -13.1334   38.1350 H   0  0  0  0  0  0  0  0  0  0  0  0
   11.6680  -11.4260   38.2414 H   0  0  0  0  0  0  0  0  0  0  0  0
  1  6  2  0  0  0  0
  1  2  1  0  0  0  0
  1 28  1  0  0  0  0
  2  3  2  0  0  0  0
  2 29  1  0  0  0  0
  3  4  1  0  0  0  0
  3 30  1  0  0  0  0
  4  5  2  0  0  0  0
  4 31  1  0  0  0  0
  5  7  1  0  0  0  0
  5  6  1  0  0  0  0
  6 32  1  0  0  0  0
  7  8  1  0  0  0  0
  8 13  2  0  0  0  0
  8  9  1  0  0  0  0
  9 10  2  0  0  0  0
  9 33  1  0  0  0  0
 10 11  1  0  0  0  0
 10 34  1  0  0  0  0
 11 14  1  0  0  0  0
 11 12  2  0  0  0  0
 12 13  1  0  0  0  0
 12 35  1  0  0  0  0
 13 36  1  0  0  0  0
 14 17  2  0  0  0  0
 14 16  2  0  0  0  0
 14 15  1  0  0  0  0
 15 27  1  0  0  0  0
 15 23  1  0  0  0  0
 15 18  1  0  0  0  0
 18 19  1  0  0  0  0
 18 37  1  0  0  0  0
 18 38  1  0  0  0  0
 19 21  1  0  0  0  0
 19 20  2  0  0  0  0
 21 22  1  0  0  0  0
 21 39  1  0  0  0  0
 22 40  1  0  0  0  0
 23 24  1  0  0  0  0
 23 41  1  0  0  0  0
 23 42  1  0  0  0  0
 24 25  1  0  0  0  0
 24 43  1  0  0  0  0
 24 44  1  0  0  0  0
 25 26  1  0  0  0  0
 26 27  1  0  0  0  0
 26 45  1  0  0  0  0
 26 46  1  0  0  0  0
 27 47  1  0  0  0  0
 27 48  1  0  0  0  0
M  END
$$$$
