RX8
 OpenBabel04161910273D

 45 47  0  0  0  0  0  0  0  0999 V2000
  -14.4978  -30.9839  -10.8662 O   0  0  0  0  0  0  0  0  0  0  0  0
  -15.8081  -30.4403  -10.7171 C   0  0  0  0  0  0  0  0  0  0  0  0
  -15.9051  -30.0132   -9.2500 C   0  0  0  0  0  0  0  0  0  0  0  0
  -16.8214  -31.5657  -10.9414 C   0  0  0  0  0  0  0  0  0  0  0  0
  -16.0723  -29.3144  -11.7482 C   0  0  0  0  0  0  0  0  0  0  0  0
  -15.0914  -28.2414  -11.7552 N   0  3  0  0  0  0  0  0  0  0  0  0
  -15.1936  -27.1189  -10.9448 C   0  0  0  0  0  0  0  0  0  0  0  0
  -16.3328  -26.8263  -10.0208 C   0  0  0  0  0  0  0  0  0  0  0  0
  -17.4157  -26.0785  -10.5903 O   0  0  0  0  0  0  0  0  0  0  0  0
  -17.5012  -26.0025  -12.0029 C   0  0  0  0  0  0  0  0  0  0  0  0
  -18.8851  -25.5271  -12.3964 C   0  0  0  0  0  0  0  0  0  0  0  0
  -14.1080  -26.3828  -11.0389 N   0  0  0  0  0  0  0  0  0  0  0  0
  -13.3299  -26.9792  -12.0044 C   0  0  0  0  0  0  0  0  0  0  0  0
  -12.0745  -26.5435  -12.4715 C   0  0  0  0  0  0  0  0  0  0  0  0
  -11.4672  -25.4321  -11.9290 N   0  0  0  0  0  0  0  0  0  0  0  0
  -13.9416  -28.1200  -12.5247 C   0  0  0  0  0  0  0  0  0  0  0  0
  -13.3089  -28.8334  -13.5890 C   0  0  0  0  0  0  0  0  0  0  0  0
  -13.8390  -29.9701  -14.2417 C   0  0  0  0  0  0  0  0  0  0  0  0
  -13.1558  -30.5903  -15.2844 C   0  0  0  0  0  0  0  0  0  0  0  0
  -11.9403  -30.0926  -15.6930 C   0  0  0  0  0  0  0  0  0  0  0  0
  -11.4026  -28.9549  -15.0573 C   0  0  0  0  0  0  0  0  0  0  0  0
  -12.0472  -28.3156  -14.0063 C   0  0  0  0  0  0  0  0  0  0  0  0
  -11.4628  -27.2274  -13.4662 N   0  0  0  0  0  0  0  0  0  0  0  0
  -14.3387  -31.2163  -11.7944 H   0  0  0  0  0  0  0  0  0  0  0  0
  -16.9006  -29.6401   -8.9891 H   0  0  0  0  0  0  0  0  0  0  0  0
  -15.1450  -29.2667   -8.9959 H   0  0  0  0  0  0  0  0  0  0  0  0
  -15.7052  -30.8653   -8.5909 H   0  0  0  0  0  0  0  0  0  0  0  0
  -17.8523  -31.1965  -10.8888 H   0  0  0  0  0  0  0  0  0  0  0  0
  -16.7002  -32.3456  -10.1819 H   0  0  0  0  0  0  0  0  0  0  0  0
  -16.6662  -32.0448  -11.9125 H   0  0  0  0  0  0  0  0  0  0  0  0
  -17.0624  -28.8778  -11.5775 H   0  0  0  0  0  0  0  0  0  0  0  0
  -16.1380  -29.7092  -12.7629 H   0  0  0  0  0  0  0  0  0  0  0  0
  -15.9579  -26.2806   -9.1479 H   0  0  0  0  0  0  0  0  0  0  0  0
  -16.7781  -27.7313   -9.6261 H   0  0  0  0  0  0  0  0  0  0  0  0
  -17.3578  -26.9775  -12.4700 H   0  0  0  0  0  0  0  0  0  0  0  0
  -16.7437  -25.3044  -12.3682 H   0  0  0  0  0  0  0  0  0  0  0  0
  -18.9588  -25.4575  -13.4854 H   0  0  0  0  0  0  0  0  0  0  0  0
  -19.1080  -24.5507  -11.9571 H   0  0  0  0  0  0  0  0  0  0  0  0
  -19.6509  -26.2262  -12.0417 H   0  0  0  0  0  0  0  0  0  0  0  0
  -10.5438  -25.1712  -12.2240 H   0  0  0  0  0  0  0  0  0  0  0  0
  -11.9257  -25.0042  -11.1342 H   0  0  0  0  0  0  0  0  0  0  0  0
  -14.7889  -30.3947  -13.9646 H   0  0  0  0  0  0  0  0  0  0  0  0
  -13.5868  -31.4620  -15.7687 H   0  0  0  0  0  0  0  0  0  0  0  0
  -11.3952  -30.5730  -16.5080 H   0  0  0  0  0  0  0  0  0  0  0  0
  -10.4378  -28.5729  -15.4005 H   0  0  0  0  0  0  0  0  0  0  0  0
  1  2  1  0  0  0  0
  1 24  1  0  0  0  0
  2  3  1  0  0  0  0
  2  4  1  0  0  0  0
  2  5  1  0  0  0  0
  3 25  1  0  0  0  0
  3 26  1  0  0  0  0
  3 27  1  0  0  0  0
  4 28  1  0  0  0  0
  4 29  1  0  0  0  0
  4 30  1  0  0  0  0
  5  6  1  0  0  0  0
  5 31  1  0  0  0  0
  5 32  1  0  0  0  0
  6  7  2  0  0  0  0
  6 16  1  0  0  0  0
  7  8  1  0  0  0  0
  7 12  1  0  0  0  0
  8  9  1  0  0  0  0
  8 33  1  0  0  0  0
  8 34  1  0  0  0  0
  9 10  1  0  0  0  0
 10 11  1  0  0  0  0
 10 35  1  0  0  0  0
 10 36  1  0  0  0  0
 11 37  1  0  0  0  0
 11 38  1  0  0  0  0
 11 39  1  0  0  0  0
 12 13  1  0  0  0  0
 13 14  2  0  0  0  0
 13 16  1  0  0  0  0
 14 15  1  0  0  0  0
 14 23  1  0  0  0  0
 15 40  1  0  0  0  0
 15 41  1  0  0  0  0
 16 17  2  0  0  0  0
 17 18  1  0  0  0  0
 17 22  1  0  0  0  0
 18 19  2  0  0  0  0
 18 42  1  0  0  0  0
 19 20  1  0  0  0  0
 19 43  1  0  0  0  0
 20 21  2  0  0  0  0
 20 44  1  0  0  0  0
 21 22  1  0  0  0  0
 21 45  1  0  0  0  0
 22 23  2  0  0  0  0
M  CHG  1   6   1
M  END
$$$$
