RZH
 OpenBabel04161909363D

 34 35  0  0  1  0  0  0  0  0999 V2000
  122.2151  103.5311  -46.5862 N   0  3  0  0  0  0  0  0  0  0  0  0
  123.5500  103.4687  -44.8002 C   0  0  2  0  0  0  0  0  0  0  0  0
  123.0806  102.7101  -45.8793 C   0  0  1  0  0  0  0  0  0  0  0  0
  122.9412  104.7758  -44.8819 C   0  0  2  0  0  0  0  0  0  0  0  0
  122.1371  104.7765  -45.9985 C   0  0  2  0  0  0  0  0  0  0  0  0
  123.4835  101.3695  -46.0906 C   0  0  1  0  0  0  0  0  0  0  0  0
  124.4553  102.8966  -43.8898 C   0  0  0  0  0  0  0  0  0  0  0  0
  124.3810  100.8322  -45.1334 C   0  0  0  0  0  0  0  0  0  0  0  0
  124.8644  101.5788  -44.0683 C   0  0  2  0  0  0  0  0  0  0  0  0
  126.0835  100.8137  -42.8408 Br  0  0  0  0  0  0  0  0  0  0  0  0
  123.1506  105.9083  -43.9333 C   0  0  0  0  0  0  0  0  0  0  0  0
  121.2759  105.8772  -46.5367 C   0  0  0  0  0  0  0  0  0  0  0  0
  124.5612  107.8008  -43.2933 N   0  3  0  0  0  0  0  0  0  0  0  0
  122.9958  100.5227  -47.2470 C   0  0  0  0  0  0  0  0  0  0  0  0
  124.2941  106.8115  -44.3723 C   0  0  0  0  0  0  0  0  0  0  0  0
  124.0725   99.5757  -47.7621 C   0  0  0  0  0  0  0  0  0  0  0  0
  121.7101  103.2468  -47.4163 H   0  0  0  0  0  0  0  0  0  0  0  0
  124.8285  103.4623  -43.0463 H   0  0  0  0  0  0  0  0  0  0  0  0
  124.7361   99.8044  -45.2278 H   0  0  0  0  0  0  0  0  0  0  0  0
  123.3514  105.5253  -42.9263 H   0  0  0  0  0  0  0  0  0  0  0  0
  122.2370  106.5089  -43.8495 H   0  0  0  0  0  0  0  0  0  0  0  0
  121.3667  106.7705  -45.9089 H   0  0  0  0  0  0  0  0  0  0  0  0
  120.2212  105.5942  -46.5445 H   0  0  0  0  0  0  0  0  0  0  0  0
  121.5836  106.1633  -47.5477 H   0  0  0  0  0  0  0  0  0  0  0  0
  125.3325  108.4293  -43.5456 H   0  0  0  0  0  0  0  0  0  0  0  0
  123.7319  108.3792  -43.1040 H   0  0  0  0  0  0  0  0  0  0  0  0
  122.6805  101.1691  -48.0780 H   0  0  0  0  0  0  0  0  0  0  0  0
  122.1189   99.9449  -46.9341 H   0  0  0  0  0  0  0  0  0  0  0  0
  124.0468  107.3828  -45.2735 H   0  0  0  0  0  0  0  0  0  0  0  0
  125.2231  106.2561  -44.5310 H   0  0  0  0  0  0  0  0  0  0  0  0
  123.7096   98.9858  -48.6044 H   0  0  0  0  0  0  0  0  0  0  0  0
  124.3758   98.8652  -46.9876 H   0  0  0  0  0  0  0  0  0  0  0  0
  124.9563  100.1413  -48.0729 H   0  0  0  0  0  0  0  0  0  0  0  0
  124.8197  107.3268  -42.4173 H   0  0  0  0  0  0  0  0  0  0  0  0
  1  5  1  0  0  0  0
  1 17  1  0  0  0  0
  2  3  1  0  0  0  0
  2  4  1  0  0  0  0
  2  7  1  6  0  0  0
  3  1  1  1  0  0  0
  3  6  1  0  0  0  0
  4  5  1  0  0  0  0
  4 11  1  6  0  0  0
  5 12  1  1  0  0  0
  6  8  1  0  0  0  0
  6 14  1  1  0  0  0
  7  9  1  0  0  0  0
  7 18  1  0  0  0  0
  8  9  1  0  0  0  0
  8 19  1  0  0  0  0
  9 10  1  1  0  0  0
 11 15  1  0  0  0  0
 11 20  1  0  0  0  0
 11 21  1  0  0  0  0
 12 22  1  0  0  0  0
 12 23  1  0  0  0  0
 12 24  1  0  0  0  0
 13 15  1  0  0  0  0
 13 25  1  0  0  0  0
 13 26  1  0  0  0  0
 13 34  1  0  0  0  0
 14 16  1  0  0  0  0
 14 27  1  0  0  0  0
 14 28  1  0  0  0  0
 15 29  1  0  0  0  0
 15 30  1  0  0  0  0
 16 31  1  0  0  0  0
 16 32  1  0  0  0  0
 16 33  1  0  0  0  0
M  CHG  2   1   1  13   1
M  END
$$$$
