S76
 OpenBabel04161910203D

 18 18  0  0  0  0  0  0  0  0999 V2000
   17.5919   19.5407    6.4581 O   0  0  0  0  0  0  0  0  0  0  0  0
   17.0344   20.1624    5.5804 C   0  0  0  0  0  0  0  0  0  0  0  0
   15.7332   20.1161    5.2388 N   0  0  0  0  0  0  0  0  0  0  0  0
   15.1354   20.8047    4.2374 C   0  0  0  0  0  0  0  0  0  0  0  0
   13.9369   20.6614    4.0157 O   0  0  0  0  0  0  0  0  0  0  0  0
   15.9607   21.7313    3.4112 C   0  0  0  0  0  0  0  0  0  0  0  0
   17.8087   21.0420    4.7955 N   0  0  0  0  0  0  0  0  0  0  0  0
   17.3804   21.7628    3.7858 C   0  0  0  0  0  0  0  0  0  0  0  0
   18.2126   22.5207    3.0731 N   0  0  0  0  0  0  0  0  0  0  0  0
   17.8250   23.3898    1.9410 C   0  0  0  0  0  0  0  0  0  0  0  0
   15.1433   19.4900    5.7734 H   0  0  0  0  0  0  0  0  0  0  0  0
   15.5301   22.7342    3.5034 H   0  0  0  0  0  0  0  0  0  0  0  0
   15.8775   21.3845    2.3746 H   0  0  0  0  0  0  0  0  0  0  0  0
   18.7831   21.0879    5.0634 H   0  0  0  0  0  0  0  0  0  0  0  0
   18.7277   23.8526    1.5346 H   0  0  0  0  0  0  0  0  0  0  0  0
   17.1486   24.1734    2.2939 H   0  0  0  0  0  0  0  0  0  0  0  0
   17.3466   22.7943    1.1591 H   0  0  0  0  0  0  0  0  0  0  0  0
   19.2017   22.5019    3.2948 H   0  0  0  0  0  0  0  0  0  0  0  0
  1  2  2  0  0  0  0
  2  3  1  0  0  0  0
  2  7  1  0  0  0  0
  3  4  1  0  0  0  0
  3 11  1  0  0  0  0
  4  5  2  0  0  0  0
  4  6  1  0  0  0  0
  6  8  1  0  0  0  0
  6 12  1  0  0  0  0
  6 13  1  0  0  0  0
  7  8  1  0  0  0  0
  7 14  1  0  0  0  0
  8  9  2  0  0  0  0
  9 10  1  0  0  0  0
  9 18  1  0  0  0  0
 10 15  1  0  0  0  0
 10 16  1  0  0  0  0
 10 17  1  0  0  0  0
M  END
$$$$
