SAH
 OpenBabel04161909333D

 46 48  0  0  1  0  0  0  0  0999 V2000
   46.4879   11.4596   36.7986 N   0  3  0  0  0  0  0  0  0  0  0  0
   45.8512   11.5788   38.1643 C   0  0  1  0  0  0  0  0  0  0  0  0
   44.5852   12.3945   38.0545 C   0  0  0  0  0  0  0  0  0  0  0  0
   44.3448   13.3065   39.2565 C   0  0  0  0  0  0  0  0  0  0  0  0
   44.8474   15.0621   39.0911 S   0  0  0  0  0  0  0  0  0  0  0  0
   45.5116   10.1678   38.6217 C   0  0  0  0  0  0  0  0  0  0  0  0
   45.6844    9.3272   37.6663 O   0  0  0  0  0  0  0  0  0  0  0  0
   45.1562   10.0245   39.8034 O   0  0  0  0  0  0  0  0  0  0  0  0
   43.2941   15.7574   38.3828 C   0  0  0  0  0  0  0  0  0  0  0  0
   43.3248   15.9712   36.8682 C   0  0  1  0  0  0  0  0  0  0  0  0
   44.0539   17.1814   36.5648 O   0  0  0  0  0  0  0  0  0  0  0  0
   44.0102   14.8788   36.0882 C   0  0  1  0  0  0  0  0  0  0  0  0
   43.1786   13.7598   35.8382 O   0  0  0  0  0  0  0  0  0  0  0  0
   44.4941   15.5762   34.8533 C   0  0  1  0  0  0  0  0  0  0  0  0
   43.3975   15.6326   33.9433 O   0  0  0  0  0  0  0  0  0  0  0  0
   44.8310   16.9742   35.3515 C   0  0  2  0  0  0  0  0  0  0  0  0
   46.2365   17.2059   35.6152 N   0  3  0  0  0  0  0  0  0  0  0  0
   46.7751   17.4681   36.8501 C   0  0  0  0  0  0  0  0  0  0  0  0
   48.0836   17.6157   36.8212 N   0  0  0  0  0  0  0  0  0  0  0  0
   48.4169   17.4739   35.5002 C   0  0  0  0  0  0  0  0  0  0  0  0
   49.6714   17.5231   34.8316 C   0  0  0  0  0  0  0  0  0  0  0  0
   50.8720   17.7664   35.4733 N   0  0  0  0  0  0  0  0  0  0  0  0
   49.6864   17.3102   33.5221 N   0  0  0  0  0  0  0  0  0  0  0  0
   48.5337   17.0451   32.8620 C   0  0  0  0  0  0  0  0  0  0  0  0
   47.2811   16.9584   33.3861 N   0  0  0  0  0  0  0  0  0  0  0  0
   47.2981   17.2088   34.7158 C   0  0  0  0  0  0  0  0  0  0  0  0
   47.2564   10.7900   36.9213 H   0  0  0  0  0  0  0  0  0  0  0  0
   45.8268   10.8850   36.2536 H   0  0  0  0  0  0  0  0  0  0  0  0
   46.5896   12.0556   38.8091 H   0  0  0  0  0  0  0  0  0  0  0  0
   43.6974   11.7752   37.8910 H   0  0  0  0  0  0  0  0  0  0  0  0
   44.6968   12.9409   37.1412 H   0  0  0  0  0  0  0  0  0  0  0  0
   44.9142   12.9430   40.1115 H   0  0  0  0  0  0  0  0  0  0  0  0
   43.2856   13.2927   39.5237 H   0  0  0  0  0  0  0  0  0  0  0  0
   43.1502   16.7271   38.8703 H   0  0  0  0  0  0  0  0  0  0  0  0
   42.4537   15.1117   38.6534 H   0  0  0  0  0  0  0  0  0  0  0  0
   42.2924   16.0933   36.5138 H   0  0  0  0  0  0  0  0  0  0  0  0
   44.9297   14.5879   36.5910 H   0  0  0  0  0  0  0  0  0  0  0  0
   42.4700   14.0539   35.2366 H   0  0  0  0  0  0  0  0  0  0  0  0
   45.3312   15.0384   34.3952 H   0  0  0  0  0  0  0  0  0  0  0  0
   43.7076   16.1790   33.1996 H   0  0  0  0  0  0  0  0  0  0  0  0
   44.4919   17.7278   34.6344 H   0  0  0  0  0  0  0  0  0  0  0  0
   46.1601   17.5247   37.7389 H   0  0  0  0  0  0  0  0  0  0  0  0
   51.7138   17.8279   34.9188 H   0  0  0  0  0  0  0  0  0  0  0  0
   50.8776   17.9826   36.4707 H   0  0  0  0  0  0  0  0  0  0  0  0
   48.6244   16.8918   31.7983 H   0  0  0  0  0  0  0  0  0  0  0  0
   46.7533   12.3337   36.3618 H   0  0  0  0  0  0  0  0  0  0  0  0
  1  2  1  0  0  0  0
  1 27  1  0  0  0  0
  1 28  1  0  0  0  0
  1 46  1  0  0  0  0
  2  3  1  0  0  0  0
  2  6  1  0  0  0  0
  2 29  1  1  0  0  0
  3  4  1  0  0  0  0
  3 30  1  0  0  0  0
  3 31  1  0  0  0  0
  4  5  1  0  0  0  0
  4 32  1  0  0  0  0
  4 33  1  0  0  0  0
  5  9  1  0  0  0  0
  6  7  2  0  0  0  0
  6  8  1  0  0  0  0
  9 10  1  0  0  0  0
  9 34  1  0  0  0  0
  9 35  1  0  0  0  0
 10 11  1  0  0  0  0
 10 12  1  0  0  0  0
 10 36  1  6  0  0  0
 11 16  1  0  0  0  0
 12 13  1  0  0  0  0
 12 14  1  0  0  0  0
 12 37  1  1  0  0  0
 13 38  1  0  0  0  0
 14 15  1  0  0  0  0
 14 16  1  0  0  0  0
 14 39  1  6  0  0  0
 15 40  1  0  0  0  0
 16 17  1  0  0  0  0
 16 41  1  6  0  0  0
 17 18  2  0  0  0  0
 17 26  1  0  0  0  0
 18 19  1  0  0  0  0
 18 42  1  0  0  0  0
 19 20  1  0  0  0  0
 20 21  2  0  0  0  0
 20 26  1  0  0  0  0
 21 22  1  0  0  0  0
 21 23  1  0  0  0  0
 22 43  1  0  0  0  0
 22 44  1  0  0  0  0
 23 24  2  0  0  0  0
 24 25  1  0  0  0  0
 24 45  1  0  0  0  0
 25 26  2  0  0  0  0
M  CHG  2   1   1  17   1
M  END
$$$$
