SAH
 OpenBabel04161912193D

 46 48  0  0  1  0  0  0  0  0999 V2000
   18.5114   40.7510  197.4523 N   0  3  0  0  0  0  0  0  0  0  0  0
   18.7138   39.3152  197.8852 C   0  0  1  0  0  0  0  0  0  0  0  0
   17.6203   38.9107  198.8720 C   0  0  0  0  0  0  0  0  0  0  0  0
   16.2161   38.9217  198.2739 C   0  0  0  0  0  0  0  0  0  0  0  0
   14.9518   38.3958  199.4857 S   0  0  0  0  0  0  0  0  0  0  0  0
   18.7619   38.3307  196.6856 C   0  0  0  0  0  0  0  0  0  0  0  0
   18.4217   38.9017  195.6160 O   0  0  0  0  0  0  0  0  0  0  0  0
   19.1427   37.1554  196.9593 O   0  0  0  0  0  0  0  0  0  0  0  0
   14.4430   39.9831  200.2528 C   0  0  0  0  0  0  0  0  0  0  0  0
   15.4554   40.5341  201.2525 C   0  0  1  0  0  0  0  0  0  0  0  0
   15.1258   41.8914  201.6492 O   0  0  0  0  0  0  0  0  0  0  0  0
   15.5427   39.6997  202.5251 C   0  0  1  0  0  0  0  0  0  0  0  0
   16.9216   39.5842  202.8962 O   0  0  0  0  0  0  0  0  0  0  0  0
   14.7782   40.5318  203.5513 C   0  0  1  0  0  0  0  0  0  0  0  0
   15.1948   40.2616  204.8852 O   0  0  0  0  0  0  0  0  0  0  0  0
   15.1142   41.9505  203.1044 C   0  0  2  0  0  0  0  0  0  0  0  0
   14.1886   42.9955  203.5341 N   0  3  0  0  0  0  0  0  0  0  0  0
   12.8249   42.9031  203.5075 C   0  0  0  0  0  0  0  0  0  0  0  0
   12.2524   43.9989  203.9639 N   0  0  0  0  0  0  0  0  0  0  0  0
   13.2982   44.8441  204.3110 C   0  0  0  0  0  0  0  0  0  0  0  0
   13.3253   46.1566  204.8423 C   0  0  0  0  0  0  0  0  0  0  0  0
   12.1973   46.8860  205.1417 N   0  0  0  0  0  0  0  0  0  0  0  0
   14.5404   46.7335  205.0574 N   0  0  0  0  0  0  0  0  0  0  0  0
   15.6505   46.0147  204.7645 C   0  0  0  0  0  0  0  0  0  0  0  0
   15.7405   44.7587  204.2666 N   0  0  0  0  0  0  0  0  0  0  0  0
   14.5152   44.2254  204.0563 C   0  0  0  0  0  0  0  0  0  0  0  0
   19.2332   40.9422  196.7323 H   0  0  0  0  0  0  0  0  0  0  0  0
   17.6429   40.7995  196.8935 H   0  0  0  0  0  0  0  0  0  0  0  0
   19.6782   39.3077  198.4012 H   0  0  0  0  0  0  0  0  0  0  0  0
   17.6734   39.5816  199.7262 H   0  0  0  0  0  0  0  0  0  0  0  0
   17.8419   37.9064  199.2538 H   0  0  0  0  0  0  0  0  0  0  0  0
   16.1726   38.2012  197.4514 H   0  0  0  0  0  0  0  0  0  0  0  0
   15.9642   39.9073  197.8721 H   0  0  0  0  0  0  0  0  0  0  0  0
   13.5088   39.7748  200.7875 H   0  0  0  0  0  0  0  0  0  0  0  0
   14.2103   40.7199  199.4793 H   0  0  0  0  0  0  0  0  0  0  0  0
   16.4281   40.6121  200.7733 H   0  0  0  0  0  0  0  0  0  0  0  0
   15.1274   38.6911  202.4126 H   0  0  0  0  0  0  0  0  0  0  0  0
   17.3039   40.4710  202.9868 H   0  0  0  0  0  0  0  0  0  0  0  0
   13.7124   40.3209  203.4722 H   0  0  0  0  0  0  0  0  0  0  0  0
   16.1489   40.4429  204.9540 H   0  0  0  0  0  0  0  0  0  0  0  0
   16.1211   42.2242  203.4541 H   0  0  0  0  0  0  0  0  0  0  0  0
   12.2839   42.0274  203.1518 H   0  0  0  0  0  0  0  0  0  0  0  0
   12.2747   47.8207  205.5182 H   0  0  0  0  0  0  0  0  0  0  0  0
   11.3011   46.4532  204.9919 H   0  0  0  0  0  0  0  0  0  0  0  0
   16.5973   46.5227  204.9569 H   0  0  0  0  0  0  0  0  0  0  0  0
   18.5417   41.4131  198.2054 H   0  0  0  0  0  0  0  0  0  0  0  0
  1  2  1  0  0  0  0
  1 27  1  0  0  0  0
  1 28  1  0  0  0  0
  1 46  1  0  0  0  0
  2  3  1  0  0  0  0
  2  6  1  0  0  0  0
  2 29  1  1  0  0  0
  3  4  1  0  0  0  0
  3 30  1  0  0  0  0
  3 31  1  0  0  0  0
  4  5  1  0  0  0  0
  4 32  1  0  0  0  0
  4 33  1  0  0  0  0
  5  9  1  0  0  0  0
  6  7  2  0  0  0  0
  6  8  1  0  0  0  0
  9 10  1  0  0  0  0
  9 34  1  0  0  0  0
  9 35  1  0  0  0  0
 10 11  1  0  0  0  0
 10 12  1  0  0  0  0
 10 36  1  6  0  0  0
 11 16  1  0  0  0  0
 12 13  1  0  0  0  0
 12 14  1  0  0  0  0
 12 37  1  6  0  0  0
 13 38  1  0  0  0  0
 14 15  1  0  0  0  0
 14 16  1  0  0  0  0
 14 39  1  6  0  0  0
 15 40  1  0  0  0  0
 16 17  1  0  0  0  0
 16 41  1  1  0  0  0
 17 18  2  0  0  0  0
 17 26  1  0  0  0  0
 18 19  1  0  0  0  0
 18 42  1  0  0  0  0
 19 20  1  0  0  0  0
 20 21  2  0  0  0  0
 20 26  1  0  0  0  0
 21 22  1  0  0  0  0
 21 23  1  0  0  0  0
 22 43  1  0  0  0  0
 22 44  1  0  0  0  0
 23 24  2  0  0  0  0
 24 25  1  0  0  0  0
 24 45  1  0  0  0  0
 25 26  2  0  0  0  0
M  CHG  2   1   1  17   1
M  END
$$$$
