SHH
 OpenBabel04161910003D

 39 39  0  0  0  0  0  0  0  0999 V2000
    3.5197   -8.7756    1.5669 O   0  0  0  0  0  0  0  0  0  0  0  0
    5.0499   -6.9905    2.9407 O   0  0  0  0  0  0  0  0  0  0  0  0
    4.3962   -7.8771    0.9312 N   0  0  0  0  0  0  0  0  0  0  0  0
    5.1325   -7.0197    1.7096 C   0  0  0  0  0  0  0  0  0  0  0  0
    6.0762   -6.1200    0.9466 C   0  0  0  0  0  0  0  0  0  0  0  0
    5.5502   -5.6977   -0.4210 C   0  0  0  0  0  0  0  0  0  0  0  0
    6.4373   -4.6376   -1.0506 C   0  0  0  0  0  0  0  0  0  0  0  0
    5.9173   -3.2471   -0.7142 C   0  0  0  0  0  0  0  0  0  0  0  0
    6.3976   -2.2558   -1.7619 C   0  0  0  0  0  0  0  0  0  0  0  0
    5.7592   -0.8867   -1.5483 C   0  0  0  0  0  0  0  0  0  0  0  0
    6.1854   -0.2733   -0.2354 C   0  0  0  0  0  0  0  0  0  0  0  0
    5.3865   -0.1364    0.6868 O   0  0  0  0  0  0  0  0  0  0  0  0
    7.5321    0.0254   -0.2136 N   0  0  0  0  0  0  0  0  0  0  0  0
    8.2595    0.5597    0.8609 C   0  0  0  0  0  0  0  0  0  0  0  0
    9.6482    0.4210    0.8084 C   0  0  0  0  0  0  0  0  0  0  0  0
   10.4446    0.9492    1.8224 C   0  0  0  0  0  0  0  0  0  0  0  0
    9.8648    1.6452    2.8757 C   0  0  0  0  0  0  0  0  0  0  0  0
    8.4800    1.7815    2.9372 C   0  0  0  0  0  0  0  0  0  0  0  0
    7.6752    1.2329    1.9342 C   0  0  0  0  0  0  0  0  0  0  0  0
    2.9599   -8.1734    2.0931 H   0  0  0  0  0  0  0  0  0  0  0  0
    4.5141   -7.9979   -0.0690 H   0  0  0  0  0  0  0  0  0  0  0  0
    7.0413   -6.6240    0.8375 H   0  0  0  0  0  0  0  0  0  0  0  0
    6.2315   -5.2214    1.5566 H   0  0  0  0  0  0  0  0  0  0  0  0
    4.5148   -5.3532   -0.3338 H   0  0  0  0  0  0  0  0  0  0  0  0
    5.5385   -6.5601   -1.1027 H   0  0  0  0  0  0  0  0  0  0  0  0
    6.4273   -4.7855   -2.1367 H   0  0  0  0  0  0  0  0  0  0  0  0
    7.4744   -4.7423   -0.7226 H   0  0  0  0  0  0  0  0  0  0  0  0
    6.2714   -2.9614    0.2851 H   0  0  0  0  0  0  0  0  0  0  0  0
    4.8228   -3.2386   -0.6837 H   0  0  0  0  0  0  0  0  0  0  0  0
    6.1222   -2.6189   -2.7607 H   0  0  0  0  0  0  0  0  0  0  0  0
    7.4858   -2.1990   -1.7267 H   0  0  0  0  0  0  0  0  0  0  0  0
    4.6666   -0.9723   -1.5572 H   0  0  0  0  0  0  0  0  0  0  0  0
    6.0467   -0.2183   -2.3659 H   0  0  0  0  0  0  0  0  0  0  0  0
    8.0754   -0.2325   -1.0280 H   0  0  0  0  0  0  0  0  0  0  0  0
   10.1194   -0.1220   -0.0068 H   0  0  0  0  0  0  0  0  0  0  0  0
   11.5261    0.8191    1.7813 H   0  0  0  0  0  0  0  0  0  0  0  0
   10.4896    2.0833    3.6484 H   0  0  0  0  0  0  0  0  0  0  0  0
    8.0235    2.3232    3.7622 H   0  0  0  0  0  0  0  0  0  0  0  0
    6.6018    1.3796    1.9947 H   0  0  0  0  0  0  0  0  0  0  0  0
  1  3  1  0  0  0  0
  1 20  1  0  0  0  0
  2  4  2  0  0  0  0
  3  4  1  0  0  0  0
  3 21  1  0  0  0  0
  4  5  1  0  0  0  0
  5  6  1  0  0  0  0
  5 22  1  0  0  0  0
  5 23  1  0  0  0  0
  6  7  1  0  0  0  0
  6 24  1  0  0  0  0
  6 25  1  0  0  0  0
  7  8  1  0  0  0  0
  7 26  1  0  0  0  0
  7 27  1  0  0  0  0
  8  9  1  0  0  0  0
  8 28  1  0  0  0  0
  8 29  1  0  0  0  0
  9 10  1  0  0  0  0
  9 30  1  0  0  0  0
  9 31  1  0  0  0  0
 10 11  1  0  0  0  0
 10 32  1  0  0  0  0
 10 33  1  0  0  0  0
 11 12  2  0  0  0  0
 11 13  1  0  0  0  0
 13 14  1  0  0  0  0
 13 34  1  0  0  0  0
 14 15  2  0  0  0  0
 14 19  1  0  0  0  0
 15 16  1  0  0  0  0
 15 35  1  0  0  0  0
 16 17  2  0  0  0  0
 16 36  1  0  0  0  0
 17 18  1  0  0  0  0
 17 37  1  0  0  0  0
 18 19  2  0  0  0  0
 18 38  1  0  0  0  0
 19 39  1  0  0  0  0
M  END
$$$$
