SNW
 OpenBabel04161911013D

 41 41  0  0  1  0  0  0  0  0999 V2000
   10.0845   47.9057   -1.8687 O   0  0  0  0  0  0  0  0  0  0  0  0
   10.8861   46.7446   -1.6032 C   0  0  1  0  0  0  0  0  0  0  0  0
   10.4772   45.6286   -2.5460 C   0  0  2  0  0  0  0  0  0  0  0  0
    9.2281   45.0316   -2.1696 O   0  0  0  0  0  0  0  0  0  0  0  0
   11.4837   44.5086   -2.6076 C   0  0  2  0  0  0  0  0  0  0  0  0
   11.4604   43.7632   -1.3904 O   0  0  0  0  0  0  0  0  0  0  0  0
   12.9021   44.9952   -2.7572 C   0  0  0  0  0  0  0  0  0  0  0  0
   13.2301   45.9973   -1.7981 O   0  0  0  0  0  0  0  0  0  0  0  0
   12.3557   47.1177   -1.8064 C   0  0  1  0  0  0  0  0  0  0  0  0
   12.4714   47.7678   -3.0678 O   0  0  0  0  0  0  0  0  0  0  0  0
   12.8535   48.0370   -0.6725 C   0  0  0  0  0  0  0  0  0  0  0  0
   12.4321   49.4528   -0.7700 N   0  3  0  0  0  0  0  0  0  0  0  0
   12.6179   50.2291    0.5274 C   0  0  2  0  0  0  0  0  0  0  0  0
   11.2709   50.4485    1.2692 C   0  0  0  0  0  0  0  0  0  0  0  0
   10.3095   49.8820    0.7082 O   0  0  0  0  0  0  0  0  0  0  0  0
   13.3941   51.5182    0.2485 C   0  0  0  0  0  0  0  0  0  0  0  0
   12.5486   52.6820   -0.2262 C   0  0  0  0  0  0  0  0  0  0  0  0
   13.3187   53.7373   -0.9424 C   0  0  0  0  0  0  0  0  0  0  0  0
   13.6857   54.7862   -0.3771 O   0  0  0  0  0  0  0  0  0  0  0  0
   13.6409   53.5719   -2.2374 N   0  0  0  0  0  0  0  0  0  0  0  0
   11.3509   51.1798    2.3083 O   0  0  0  0  0  0  0  0  0  0  0  0
    9.1646   47.6814   -1.6548 H   0  0  0  0  0  0  0  0  0  0  0  0
   10.7241   46.4183   -0.5804 H   0  0  0  0  0  0  0  0  0  0  0  0
   10.3869   46.0404   -3.5472 H   0  0  0  0  0  0  0  0  0  0  0  0
    8.5287   45.6947   -2.2953 H   0  0  0  0  0  0  0  0  0  0  0  0
   11.1991   43.8815   -3.4610 H   0  0  0  0  0  0  0  0  0  0  0  0
   10.5463   43.4518   -1.2745 H   0  0  0  0  0  0  0  0  0  0  0  0
   13.0848   45.3705   -3.7650 H   0  0  0  0  0  0  0  0  0  0  0  0
   13.5657   44.1487   -2.5575 H   0  0  0  0  0  0  0  0  0  0  0  0
   13.4038   47.9951   -3.1419 H   0  0  0  0  0  0  0  0  0  0  0  0
   13.9477   48.0732   -0.7076 H   0  0  0  0  0  0  0  0  0  0  0  0
   12.5210   47.6416    0.2881 H   0  0  0  0  0  0  0  0  0  0  0  0
   12.8926   49.9335   -1.5313 H   0  0  0  0  0  0  0  0  0  0  0  0
   13.2679   49.6043    1.1487 H   0  0  0  0  0  0  0  0  0  0  0  0
   14.1827   51.3265   -0.4825 H   0  0  0  0  0  0  0  0  0  0  0  0
   13.8613   51.8110    1.1974 H   0  0  0  0  0  0  0  0  0  0  0  0
   12.0841   53.1565    0.6461 H   0  0  0  0  0  0  0  0  0  0  0  0
   11.7844   52.3338   -0.9134 H   0  0  0  0  0  0  0  0  0  0  0  0
   14.1314   54.3269   -2.7195 H   0  0  0  0  0  0  0  0  0  0  0  0
   13.3676   52.7689   -2.7526 H   0  0  0  0  0  0  0  0  0  0  0  0
   11.3933   49.4709   -0.9205 H   0  0  0  0  0  0  0  0  0  0  0  0
  1  2  1  0  0  0  0
  1 22  1  0  0  0  0
  2  3  1  0  0  0  0
  2  9  1  0  0  0  0
  2 23  1  1  0  0  0
  3  4  1  0  0  0  0
  3  5  1  0  0  0  0
  3 24  1  6  0  0  0
  4 25  1  0  0  0  0
  5  6  1  0  0  0  0
  5  7  1  0  0  0  0
  5 26  1  6  0  0  0
  6 27  1  0  0  0  0
  7  8  1  0  0  0  0
  7 28  1  0  0  0  0
  7 29  1  0  0  0  0
  8  9  1  0  0  0  0
  9 10  1  6  0  0  0
  9 11  1  0  0  0  0
 10 30  1  0  0  0  0
 11 12  1  0  0  0  0
 11 31  1  0  0  0  0
 11 32  1  0  0  0  0
 12 13  1  0  0  0  0
 12 33  1  0  0  0  0
 12 41  1  0  0  0  0
 13 14  1  0  0  0  0
 13 16  1  0  0  0  0
 13 34  1  1  0  0  0
 14 15  2  0  0  0  0
 14 21  1  0  0  0  0
 16 17  1  0  0  0  0
 16 35  1  0  0  0  0
 16 36  1  0  0  0  0
 17 18  1  0  0  0  0
 17 37  1  0  0  0  0
 17 38  1  0  0  0  0
 18 19  2  0  0  0  0
 18 20  1  0  0  0  0
 20 39  1  0  0  0  0
 20 40  1  0  0  0  0
M  CHG  1  12   1
M  END
$$$$
