SNW
 OpenBabel04161911033D

 41 41  0  0  1  0  0  0  0  0999 V2000
   39.5617  -64.3617   32.5271 O   0  0  0  0  0  0  0  0  0  0  0  0
   40.8968  -64.3142   33.0600 C   0  0  1  0  0  0  0  0  0  0  0  0
   40.9289  -63.4282   34.2936 C   0  0  2  0  0  0  0  0  0  0  0  0
   40.5255  -62.1010   33.9488 O   0  0  0  0  0  0  0  0  0  0  0  0
   42.3250  -63.4078   34.9096 C   0  0  2  0  0  0  0  0  0  0  0  0
   43.2339  -62.7285   34.0361 O   0  0  0  0  0  0  0  0  0  0  0  0
   42.8343  -64.8285   35.1458 C   0  0  0  0  0  0  0  0  0  0  0  0
   42.7674  -65.6401   33.9657 O   0  0  0  0  0  0  0  0  0  0  0  0
   41.4408  -65.7069   33.4248 C   0  0  1  0  0  0  0  0  0  0  0  0
   40.5692  -66.2864   34.3940 O   0  0  0  0  0  0  0  0  0  0  0  0
   41.4934  -66.5436   32.1364 C   0  0  0  0  0  0  0  0  0  0  0  0
   42.1761  -67.8504   32.4064 N   0  3  0  0  0  0  0  0  0  0  0  0
   41.9956  -68.8323   31.2614 C   0  0  2  0  0  0  0  0  0  0  0  0
   40.6488  -69.6044   31.3908 C   0  0  0  0  0  0  0  0  0  0  0  0
   40.3274  -70.3336   30.4295 O   0  0  0  0  0  0  0  0  0  0  0  0
   43.1415  -69.8542   31.2794 C   0  0  0  0  0  0  0  0  0  0  0  0
   43.3558  -70.5482   32.6303 C   0  0  0  0  0  0  0  0  0  0  0  0
   44.4871  -71.5558   32.6250 C   0  0  0  0  0  0  0  0  0  0  0  0
   45.0052  -72.0282   31.6267 O   0  0  0  0  0  0  0  0  0  0  0  0
   44.9460  -71.9718   33.8613 N   0  0  0  0  0  0  0  0  0  0  0  0
   40.1018  -69.3569   32.5160 O   0  0  0  0  0  0  0  0  0  0  0  0
   38.9598  -64.7127   33.2130 H   0  0  0  0  0  0  0  0  0  0  0  0
   41.5326  -63.8679   32.2900 H   0  0  0  0  0  0  0  0  0  0  0  0
   40.2259  -63.8028   35.0494 H   0  0  0  0  0  0  0  0  0  0  0  0
   39.6544  -62.1613   33.5191 H   0  0  0  0  0  0  0  0  0  0  0  0
   42.2732  -62.8606   35.8541 H   0  0  0  0  0  0  0  0  0  0  0  0
   44.0961  -62.6755   34.4813 H   0  0  0  0  0  0  0  0  0  0  0  0
   42.2614  -65.3207   35.9362 H   0  0  0  0  0  0  0  0  0  0  0  0
   43.8840  -64.7956   35.4548 H   0  0  0  0  0  0  0  0  0  0  0  0
   40.8637  -67.1935   34.5724 H   0  0  0  0  0  0  0  0  0  0  0  0
   42.1122  -66.0510   31.3801 H   0  0  0  0  0  0  0  0  0  0  0  0
   40.4891  -66.7493   31.7555 H   0  0  0  0  0  0  0  0  0  0  0  0
   43.1555  -67.7122   32.6613 H   0  0  0  0  0  0  0  0  0  0  0  0
   42.0162  -68.2427   30.3419 H   0  0  0  0  0  0  0  0  0  0  0  0
   44.0640  -69.3418   30.9792 H   0  0  0  0  0  0  0  0  0  0  0  0
   42.9325  -70.6030   30.5070 H   0  0  0  0  0  0  0  0  0  0  0  0
   42.4224  -71.0579   32.9103 H   0  0  0  0  0  0  0  0  0  0  0  0
   43.5830  -69.7849   33.3879 H   0  0  0  0  0  0  0  0  0  0  0  0
   45.6632  -72.6770   33.8708 H   0  0  0  0  0  0  0  0  0  0  0  0
   44.5573  -71.6583   34.7388 H   0  0  0  0  0  0  0  0  0  0  0  0
   41.6606  -68.3288   33.1703 H   0  0  0  0  0  0  0  0  0  0  0  0
  1  2  1  0  0  0  0
  1 22  1  0  0  0  0
  2  3  1  0  0  0  0
  2  9  1  0  0  0  0
  2 23  1  6  0  0  0
  3  4  1  0  0  0  0
  3  5  1  0  0  0  0
  3 24  1  1  0  0  0
  4 25  1  0  0  0  0
  5  6  1  0  0  0  0
  5  7  1  0  0  0  0
  5 26  1  1  0  0  0
  6 27  1  0  0  0  0
  7  8  1  0  0  0  0
  7 28  1  0  0  0  0
  7 29  1  0  0  0  0
  8  9  1  0  0  0  0
  9 10  1  1  0  0  0
  9 11  1  0  0  0  0
 10 30  1  0  0  0  0
 11 12  1  0  0  0  0
 11 31  1  0  0  0  0
 11 32  1  0  0  0  0
 12 13  1  0  0  0  0
 12 33  1  0  0  0  0
 12 41  1  0  0  0  0
 13 14  1  0  0  0  0
 13 16  1  0  0  0  0
 13 34  1  6  0  0  0
 14 15  2  0  0  0  0
 14 21  1  0  0  0  0
 16 17  1  0  0  0  0
 16 35  1  0  0  0  0
 16 36  1  0  0  0  0
 17 18  1  0  0  0  0
 17 37  1  0  0  0  0
 17 38  1  0  0  0  0
 18 19  2  0  0  0  0
 18 20  1  0  0  0  0
 20 39  1  0  0  0  0
 20 40  1  0  0  0  0
M  CHG  1  12   1
M  END
$$$$
