TG5
 OpenBabel04161910043D

 39 39  0  0  0  0  0  0  0  0999 V2000
    0.4971    2.9625   84.6403 C   0  0  0  0  0  0  0  0  0  0  0  0
   -0.2713    3.9952   84.0778 C   0  0  0  0  0  0  0  0  0  0  0  0
   -1.6399    3.9801   84.3042 C   0  0  0  0  0  0  0  0  0  0  0  0
   -2.2571    2.9785   85.0509 C   0  0  0  0  0  0  0  0  0  0  0  0
   -1.4848    1.9769   85.6203 C   0  0  0  0  0  0  0  0  0  0  0  0
   -0.1035    1.9605   85.4201 C   0  0  0  0  0  0  0  0  0  0  0  0
    0.4019    4.9691   83.3036 N   0  0  0  0  0  0  0  0  0  0  0  0
   -0.0333    6.0575   82.6023 C   0  0  0  0  0  0  0  0  0  0  0  0
    0.7751    6.7283   81.9490 O   0  0  0  0  0  0  0  0  0  0  0  0
   -1.7652    7.3583   81.3430 N   0  3  0  0  0  0  0  0  0  0  0  0
   -1.4978    6.4648   82.5281 C   0  0  0  0  0  0  0  0  0  0  0  0
   -2.3006    0.7633   86.6253 S   0  0  0  0  0  0  0  0  0  0  0  0
   -3.7166    0.8214   86.3316 O   0  0  0  0  0  0  0  0  0  0  0  0
   -1.7791    0.8983   87.9647 O   0  0  0  0  0  0  0  0  0  0  0  0
   -1.7512   -0.6705   85.9973 N   0  0  0  0  0  0  0  0  0  0  0  0
   -3.0266    6.9938   80.6562 C   0  0  0  0  0  0  0  0  0  0  0  0
   -3.1953    7.8560   79.4308 C   0  0  0  0  0  0  0  0  0  0  0  0
   -4.4188    7.3901   78.6496 C   0  0  0  0  0  0  0  0  0  0  0  0
   -4.9495    8.5115   77.7809 C   0  0  0  0  0  0  0  0  0  0  0  0
    1.5772    2.9259   84.4991 H   0  0  0  0  0  0  0  0  0  0  0  0
   -2.3321    4.7254   83.9563 H   0  0  0  0  0  0  0  0  0  0  0  0
   -3.3349    3.0072   85.1974 H   0  0  0  0  0  0  0  0  0  0  0  0
    0.5126    1.1844   85.8737 H   0  0  0  0  0  0  0  0  0  0  0  0
    1.4171    4.8709   83.2344 H   0  0  0  0  0  0  0  0  0  0  0  0
   -1.7552    8.3446   81.6364 H   0  0  0  0  0  0  0  0  0  0  0  0
   -1.8071    7.0175   83.4203 H   0  0  0  0  0  0  0  0  0  0  0  0
   -2.1123    5.5935   82.3407 H   0  0  0  0  0  0  0  0  0  0  0  0
   -2.0699   -1.5232   86.4484 H   0  0  0  0  0  0  0  0  0  0  0  0
   -1.0914   -0.6988   85.2305 H   0  0  0  0  0  0  0  0  0  0  0  0
   -3.8413    7.1478   81.3742 H   0  0  0  0  0  0  0  0  0  0  0  0
   -2.9682    5.9323   80.3877 H   0  0  0  0  0  0  0  0  0  0  0  0
   -2.3048    7.7940   78.7933 H   0  0  0  0  0  0  0  0  0  0  0  0
   -3.3022    8.9018   79.7399 H   0  0  0  0  0  0  0  0  0  0  0  0
   -5.2111    7.0599   79.3324 H   0  0  0  0  0  0  0  0  0  0  0  0
   -4.1518    6.5266   78.0279 H   0  0  0  0  0  0  0  0  0  0  0  0
   -5.8275    8.1774   77.2232 H   0  0  0  0  0  0  0  0  0  0  0  0
   -4.1862    8.8462   77.0733 H   0  0  0  0  0  0  0  0  0  0  0  0
   -5.2433    9.3640   78.4030 H   0  0  0  0  0  0  0  0  0  0  0  0
   -0.9513    7.2672   80.7084 H   0  0  0  0  0  0  0  0  0  0  0  0
  1  2  2  0  0  0  0
  1  6  1  0  0  0  0
  1 20  1  0  0  0  0
  2  3  1  0  0  0  0
  2  7  1  0  0  0  0
  3  4  2  0  0  0  0
  3 21  1  0  0  0  0
  4  5  1  0  0  0  0
  4 22  1  0  0  0  0
  5  6  2  0  0  0  0
  5 12  1  0  0  0  0
  6 23  1  0  0  0  0
  7  8  1  0  0  0  0
  7 24  1  0  0  0  0
  8  9  2  0  0  0  0
  8 11  1  0  0  0  0
 10 11  1  0  0  0  0
 10 16  1  0  0  0  0
 10 25  1  0  0  0  0
 10 39  1  0  0  0  0
 11 26  1  0  0  0  0
 11 27  1  0  0  0  0
 12 13  2  0  0  0  0
 12 14  2  0  0  0  0
 12 15  1  0  0  0  0
 15 28  1  0  0  0  0
 15 29  1  0  0  0  0
 16 17  1  0  0  0  0
 16 30  1  0  0  0  0
 16 31  1  0  0  0  0
 17 18  1  0  0  0  0
 17 32  1  0  0  0  0
 17 33  1  0  0  0  0
 18 19  1  0  0  0  0
 18 34  1  0  0  0  0
 18 35  1  0  0  0  0
 19 36  1  0  0  0  0
 19 37  1  0  0  0  0
 19 38  1  0  0  0  0
M  CHG  1  10   1
M  END
$$$$
