TGZ
 OpenBabel04161910293D

 60 63  0  0  1  0  0  0  0  0999 V2000
   -2.6556  -10.3853    0.7774 S   0  0  0  0  0  0  0  0  0  0  0  0
   -0.1964   -9.2321    1.3085 C   0  0  2  0  0  0  0  0  0  0  0  0
    0.6051   -7.9546    1.6101 C   0  0  2  0  0  0  0  0  0  0  0  0
   -1.4151   -6.5864    1.0762 C   0  0  1  0  0  0  0  0  0  0  0  0
   -1.9982   -5.4188    0.2676 C   0  0  0  0  0  0  0  0  0  0  0  0
    6.3027   -8.8153   -2.2907 C   0  0  0  0  0  0  0  0  0  0  0  0
   -1.7201   -8.9401    1.4055 C   0  0  1  0  0  0  0  0  0  0  0  0
   -4.3528   -9.7781    1.0674 C   0  0  2  0  0  0  0  0  0  0  0  0
   -2.1140   -7.7777    0.6741 O   0  0  0  0  0  0  0  0  0  0  0  0
   -4.8707  -10.3927    2.2532 O   0  0  0  0  0  0  0  0  0  0  0  0
   -6.1845   -9.9132    2.5941 C   0  0  2  0  0  0  0  0  0  0  0  0
   -6.5695  -10.5215    3.9451 C   0  0  0  0  0  0  0  0  0  0  0  0
   -3.3880   -5.2757    0.5685 O   0  0  0  0  0  0  0  0  0  0  0  0
   -5.6969  -10.0114    4.9549 O   0  0  0  0  0  0  0  0  0  0  0  0
    0.0916   -6.7496    0.8149 C   0  0  2  0  0  0  0  0  0  0  0  0
   -7.1702  -10.2909    1.4901 C   0  0  2  0  0  0  0  0  0  0  0  0
    0.2787   -6.9409   -0.5941 O   0  0  0  0  0  0  0  0  0  0  0  0
   -7.2850  -11.7150    1.3751 O   0  0  0  0  0  0  0  0  0  0  0  0
   -6.7003   -9.6639    0.1616 C   0  0  2  0  0  0  0  0  0  0  0  0
   -7.5617  -10.0227   -0.9231 O   0  0  0  0  0  0  0  0  0  0  0  0
   -5.2455  -10.0638   -0.1657 C   0  0  1  0  0  0  0  0  0  0  0  0
    0.1490  -10.2431    2.2711 O   0  0  0  0  0  0  0  0  0  0  0  0
   -4.7873   -9.3491   -1.3257 O   0  0  0  0  0  0  0  0  0  0  0  0
    2.0427   -8.1408    1.4353 N   0  3  0  0  0  0  0  0  0  0  0  0
    2.8697   -7.9470    2.4732 N   0  0  0  0  0  0  0  0  0  0  0  0
    4.1122   -8.1291    2.0404 N   0  0  0  0  0  0  0  0  0  0  0  0
    4.0639   -8.4365    0.7077 C   0  0  0  0  0  0  0  0  0  0  0  0
    2.7437   -8.4859    0.3126 C   0  0  0  0  0  0  0  0  0  0  0  0
    5.2292   -8.6728   -0.1268 C   0  0  0  0  0  0  0  0  0  0  0  0
    5.1642   -8.5799   -1.5208 C   0  0  0  0  0  0  0  0  0  0  0  0
    7.5159   -9.1423   -1.7052 C   0  0  0  0  0  0  0  0  0  0  0  0
    7.6005   -9.2282   -0.3156 C   0  0  0  0  0  0  0  0  0  0  0  0
    6.4642   -8.9887    0.4741 C   0  0  0  0  0  0  0  0  0  0  0  0
    6.2182   -8.7194   -3.6248 F   0  0  0  0  0  0  0  0  0  0  0  0
    0.0524   -9.6046    0.3072 H   0  0  0  0  0  0  0  0  0  0  0  0
    0.4774   -7.7314    2.6807 H   0  0  0  0  0  0  0  0  0  0  0  0
   -1.6187   -6.4183    2.1410 H   0  0  0  0  0  0  0  0  0  0  0  0
   -1.9168   -5.5866   -0.8110 H   0  0  0  0  0  0  0  0  0  0  0  0
   -1.4988   -4.4787    0.5193 H   0  0  0  0  0  0  0  0  0  0  0  0
   -2.0053   -8.8153    2.4583 H   0  0  0  0  0  0  0  0  0  0  0  0
   -4.3152   -8.6954    1.2275 H   0  0  0  0  0  0  0  0  0  0  0  0
   -6.1256   -8.8204    2.7072 H   0  0  0  0  0  0  0  0  0  0  0  0
   -6.4709  -11.6120    3.9470 H   0  0  0  0  0  0  0  0  0  0  0  0
   -7.5938  -10.2536    4.2196 H   0  0  0  0  0  0  0  0  0  0  0  0
   -3.7947   -6.1110    0.2766 H   0  0  0  0  0  0  0  0  0  0  0  0
   -4.7988  -10.2863    4.6937 H   0  0  0  0  0  0  0  0  0  0  0  0
    0.6211   -5.8321    1.1008 H   0  0  0  0  0  0  0  0  0  0  0  0
   -8.1770   -9.9250    1.7263 H   0  0  0  0  0  0  0  0  0  0  0  0
    1.2023   -6.7421   -0.8191 H   0  0  0  0  0  0  0  0  0  0  0  0
   -6.3945  -12.0876    1.2267 H   0  0  0  0  0  0  0  0  0  0  0  0
   -6.7550   -8.5716    0.2405 H   0  0  0  0  0  0  0  0  0  0  0  0
   -8.4778   -9.8203   -0.6688 H   0  0  0  0  0  0  0  0  0  0  0  0
   -5.2236  -11.1294   -0.4248 H   0  0  0  0  0  0  0  0  0  0  0  0
    1.0815  -10.4979    2.1435 H   0  0  0  0  0  0  0  0  0  0  0  0
   -4.9105   -8.3979   -1.1844 H   0  0  0  0  0  0  0  0  0  0  0  0
    2.2707   -8.7191   -0.6305 H   0  0  0  0  0  0  0  0  0  0  0  0
    4.2475   -8.3143   -2.0354 H   0  0  0  0  0  0  0  0  0  0  0  0
    8.3840   -9.3264   -2.3271 H   0  0  0  0  0  0  0  0  0  0  0  0
    8.5463   -9.4803    0.1580 H   0  0  0  0  0  0  0  0  0  0  0  0
    6.5460   -9.0595    1.5549 H   0  0  0  0  0  0  0  0  0  0  0  0
  1  7  1  0  0  0  0
  1  8  1  0  0  0  0
  2  3  1  0  0  0  0
  2  7  1  0  0  0  0
  2 22  1  0  0  0  0
  2 35  1  6  0  0  0
  3 15  1  0  0  0  0
  3 24  1  0  0  0  0
  3 36  1  1  0  0  0
  4  5  1  0  0  0  0
  4  9  1  0  0  0  0
  4 15  1  0  0  0  0
  4 37  1  1  0  0  0
  5 13  1  0  0  0  0
  5 38  1  0  0  0  0
  5 39  1  0  0  0  0
  6 30  2  0  0  0  0
  6 31  1  0  0  0  0
  6 34  1  0  0  0  0
  7  9  1  0  0  0  0
  7 40  1  1  0  0  0
  8 10  1  0  0  0  0
  8 21  1  0  0  0  0
  8 41  1  1  0  0  0
 10 11  1  0  0  0  0
 11 12  1  0  0  0  0
 11 16  1  0  0  0  0
 11 42  1  1  0  0  0
 12 14  1  0  0  0  0
 12 43  1  0  0  0  0
 12 44  1  0  0  0  0
 13 45  1  0  0  0  0
 14 46  1  0  0  0  0
 15 17  1  0  0  0  0
 15 47  1  1  0  0  0
 16 18  1  0  0  0  0
 16 19  1  0  0  0  0
 16 48  1  1  0  0  0
 17 49  1  0  0  0  0
 18 50  1  0  0  0  0
 19 20  1  0  0  0  0
 19 21  1  0  0  0  0
 19 51  1  1  0  0  0
 20 52  1  0  0  0  0
 21 23  1  0  0  0  0
 21 53  1  6  0  0  0
 22 54  1  0  0  0  0
 23 55  1  0  0  0  0
 24 25  1  0  0  0  0
 24 28  2  0  0  0  0
 25 26  1  0  0  0  0
 26 27  2  0  0  0  0
 27 28  1  0  0  0  0
 27 29  1  0  0  0  0
 28 56  1  0  0  0  0
 29 30  1  0  0  0  0
 29 33  2  0  0  0  0
 30 57  1  0  0  0  0
 31 32  2  0  0  0  0
 31 58  1  0  0  0  0
 32 33  1  0  0  0  0
 32 59  1  0  0  0  0
 33 60  1  0  0  0  0
M  CHG  1  24   1
M  END
$$$$
