TIQ
 OpenBabel04161909353D

 64 68  0  0  1  0  0  0  0  0999 V2000
    1.4173    4.2871    1.8802 C   0  0  0  0  0  0  0  0  0  0  0  0
    2.6572    5.1520    2.0480 C   0  0  0  0  0  0  0  0  0  0  0  0
    2.8686    6.0543    0.8351 C   0  0  0  0  0  0  0  0  0  0  0  0
    4.4171    7.0048    0.9994 S   0  0  0  0  0  0  0  0  0  0  0  0
    5.6022    5.9205    0.2255 C   0  0  0  0  0  0  0  0  0  0  0  0
    6.8766    6.3699    0.2265 N   0  0  0  0  0  0  0  0  0  0  0  0
    7.8456    5.6749   -0.4317 C   0  0  0  0  0  0  0  0  0  0  0  0
    9.1683    6.1387   -0.4599 N   0  0  0  0  0  0  0  0  0  0  0  0
    9.6824    6.9058    0.6716 C   0  0  2  0  0  0  0  0  0  0  0  0
   10.1746    8.3016    0.4293 C   0  0  0  0  0  0  0  0  0  0  0  0
   11.1606    7.2204    0.7904 C   0  0  1  0  0  0  0  0  0  0  0  0
   11.8806    7.3030    2.1263 C   0  0  0  0  0  0  0  0  0  0  0  0
   13.2771    7.1221    2.1737 C   0  0  0  0  0  0  0  0  0  0  0  0
   13.9971    7.2473    3.3677 C   0  0  0  0  0  0  0  0  0  0  0  0
   13.3198    7.5572    4.5432 C   0  0  0  0  0  0  0  0  0  0  0  0
   14.0134    7.6877    5.6824 F   0  0  0  0  0  0  0  0  0  0  0  0
   11.9472    7.7284    4.5306 C   0  0  0  0  0  0  0  0  0  0  0  0
   11.2938    8.0346    5.6643 F   0  0  0  0  0  0  0  0  0  0  0  0
   11.2314    7.6066    3.3449 C   0  0  0  0  0  0  0  0  0  0  0  0
    7.4701    4.4891   -1.0685 C   0  0  0  0  0  0  0  0  0  0  0  0
    8.1591    3.5462   -1.7850 N   0  0  0  0  0  0  0  0  0  0  0  0
    7.3075    2.5766   -2.1069 N   0  0  0  0  0  0  0  0  0  0  0  0
    6.1027    2.9027   -1.5860 N   0  3  0  0  0  0  0  0  0  0  0  0
    5.0156    1.9547   -1.6267 C   0  0  2  0  0  0  0  0  0  0  0  0
    3.7592    2.4513   -2.3461 C   0  0  0  0  0  0  0  0  0  0  0  0
    2.5980    1.6500   -1.7362 C   0  0  2  0  0  0  0  0  0  0  0  0
    1.5868    2.5425   -1.2732 O   0  0  0  0  0  0  0  0  0  0  0  0
    0.6058    2.8855   -2.2602 C   0  0  0  0  0  0  0  0  0  0  0  0
   -0.5294    1.8602   -2.2711 C   0  0  0  0  0  0  0  0  0  0  0  0
   -1.0136    1.6299   -0.9503 O   0  0  0  0  0  0  0  0  0  0  0  0
    3.1783    0.8949   -0.5273 C   0  0  1  0  0  0  0  0  0  0  0  0
    3.4197   -0.4710   -0.8855 O   0  0  0  0  0  0  0  0  0  0  0  0
    4.5146    1.5708   -0.2325 C   0  0  1  0  0  0  0  0  0  0  0  0
    5.3942    0.6786    0.4515 O   0  0  0  0  0  0  0  0  0  0  0  0
    6.1481    4.1148   -0.9572 C   0  0  0  0  0  0  0  0  0  0  0  0
    5.1613    4.7804   -0.3386 N   0  0  0  0  0  0  0  0  0  0  0  0
    1.2678    3.6591    2.7632 H   0  0  0  0  0  0  0  0  0  0  0  0
    1.5219    3.6282    1.0155 H   0  0  0  0  0  0  0  0  0  0  0  0
    0.5216    4.9003    1.7389 H   0  0  0  0  0  0  0  0  0  0  0  0
    3.5220    4.4966    2.2041 H   0  0  0  0  0  0  0  0  0  0  0  0
    2.5392    5.7620    2.9520 H   0  0  0  0  0  0  0  0  0  0  0  0
    2.0508    6.7818    0.7813 H   0  0  0  0  0  0  0  0  0  0  0  0
    2.8382    5.4909   -0.1027 H   0  0  0  0  0  0  0  0  0  0  0  0
    9.7901    5.5432   -0.9986 H   0  0  0  0  0  0  0  0  0  0  0  0
    9.1489    6.7043    1.5974 H   0  0  0  0  0  0  0  0  0  0  0  0
    9.9047    9.0544    1.1594 H   0  0  0  0  0  0  0  0  0  0  0  0
   10.1764    8.6667   -0.5918 H   0  0  0  0  0  0  0  0  0  0  0  0
   11.7627    6.8333   -0.0274 H   0  0  0  0  0  0  0  0  0  0  0  0
   13.8219    6.8883    1.2573 H   0  0  0  0  0  0  0  0  0  0  0  0
   15.0723    7.1157    3.3872 H   0  0  0  0  0  0  0  0  0  0  0  0
   10.1585    7.7664    3.3779 H   0  0  0  0  0  0  0  0  0  0  0  0
    5.3967    1.0615   -2.1414 H   0  0  0  0  0  0  0  0  0  0  0  0
    3.8385    2.2643   -3.4231 H   0  0  0  0  0  0  0  0  0  0  0  0
    3.6047    3.5297   -2.2247 H   0  0  0  0  0  0  0  0  0  0  0  0
    2.1832    0.9422   -2.4640 H   0  0  0  0  0  0  0  0  0  0  0  0
    1.0583    2.9882   -3.2527 H   0  0  0  0  0  0  0  0  0  0  0  0
    0.2048    3.8615   -1.9680 H   0  0  0  0  0  0  0  0  0  0  0  0
   -0.1926    0.8994   -2.6696 H   0  0  0  0  0  0  0  0  0  0  0  0
   -1.3617    2.2180   -2.8843 H   0  0  0  0  0  0  0  0  0  0  0  0
   -0.2282    1.4293   -0.4078 H   0  0  0  0  0  0  0  0  0  0  0  0
    2.5163    0.9091    0.3455 H   0  0  0  0  0  0  0  0  0  0  0  0
    3.6072   -0.9338   -0.0458 H   0  0  0  0  0  0  0  0  0  0  0  0
    4.3539    2.4447    0.4067 H   0  0  0  0  0  0  0  0  0  0  0  0
    5.5981   -0.0598   -0.1531 H   0  0  0  0  0  0  0  0  0  0  0  0
  1  2  1  0  0  0  0
  1 37  1  0  0  0  0
  1 38  1  0  0  0  0
  1 39  1  0  0  0  0
  2  3  1  0  0  0  0
  2 40  1  0  0  0  0
  2 41  1  0  0  0  0
  3  4  1  0  0  0  0
  3 42  1  0  0  0  0
  3 43  1  0  0  0  0
  4  5  1  0  0  0  0
  5  6  2  0  0  0  0
  5 36  1  0  0  0  0
  6  7  1  0  0  0  0
  7  8  1  0  0  0  0
  7 20  2  0  0  0  0
  8  9  1  0  0  0  0
  8 44  1  0  0  0  0
  9 10  1  0  0  0  0
  9 11  1  0  0  0  0
  9 45  1  1  0  0  0
 10 11  1  0  0  0  0
 10 46  1  0  0  0  0
 10 47  1  0  0  0  0
 11 12  1  0  0  0  0
 11 48  1  6  0  0  0
 12 13  2  0  0  0  0
 12 19  1  0  0  0  0
 13 14  1  0  0  0  0
 13 49  1  0  0  0  0
 14 15  2  0  0  0  0
 14 50  1  0  0  0  0
 15 16  1  0  0  0  0
 15 17  1  0  0  0  0
 17 18  1  0  0  0  0
 17 19  2  0  0  0  0
 19 51  1  0  0  0  0
 20 21  1  0  0  0  0
 20 35  1  0  0  0  0
 21 22  1  0  0  0  0
 22 23  2  0  0  0  0
 23 24  1  0  0  0  0
 23 35  1  0  0  0  0
 24 25  1  0  0  0  0
 24 33  1  0  0  0  0
 24 52  1  6  0  0  0
 25 26  1  0  0  0  0
 25 53  1  0  0  0  0
 25 54  1  0  0  0  0
 26 27  1  0  0  0  0
 26 31  1  0  0  0  0
 26 55  1  6  0  0  0
 27 28  1  0  0  0  0
 28 29  1  0  0  0  0
 28 56  1  0  0  0  0
 28 57  1  0  0  0  0
 29 30  1  0  0  0  0
 29 58  1  0  0  0  0
 29 59  1  0  0  0  0
 30 60  1  0  0  0  0
 31 32  1  0  0  0  0
 31 33  1  0  0  0  0
 31 61  1  1  0  0  0
 32 62  1  0  0  0  0
 33 34  1  0  0  0  0
 33 63  1  1  0  0  0
 34 64  1  0  0  0  0
 35 36  2  0  0  0  0
M  CHG  1  23   1
M  END
$$$$
