UNN
 OpenBabel04161911463D

 47 50  0  0  1  0  0  0  0  0999 V2000
   27.4408   12.3204   30.5598 C   0  0  0  0  0  0  0  0  0  0  0  0
   26.6687   12.2587   29.4155 C   0  0  0  0  0  0  0  0  0  0  0  0
   25.3338   12.6211   29.4727 C   0  0  0  0  0  0  0  0  0  0  0  0
   24.7648   13.0268   30.6787 C   0  0  0  0  0  0  0  0  0  0  0  0
   25.5235   13.0774   31.8477 C   0  0  0  0  0  0  0  0  0  0  0  0
   24.9393   13.4430   32.9935 N   0  0  0  0  0  0  0  0  0  0  0  0
   25.7233   13.4295   34.0919 C   0  0  0  0  0  0  0  0  0  0  0  0
   27.0304   13.1200   34.1574 N   0  0  0  0  0  0  0  0  0  0  0  0
   27.6121   12.7865   32.9982 C   0  0  0  0  0  0  0  0  0  0  0  0
   26.8835   12.7346   31.7890 C   0  0  0  0  0  0  0  0  0  0  0  0
   28.9786   12.5250   32.9284 N   0  0  0  0  0  0  0  0  0  0  0  0
   29.8354   11.8413   33.9111 C   0  0  2  0  0  0  0  0  0  0  0  0
   30.1944    9.8381   35.5080 C   0  0  0  0  0  0  0  0  0  0  0  0
   29.1686   10.6859   34.7287 C   0  0  0  0  0  0  0  0  0  0  0  0
   31.1517    9.0305   34.8680 C   0  0  0  0  0  0  0  0  0  0  0  0
   32.0426    8.2435   35.6077 C   0  0  0  0  0  0  0  0  0  0  0  0
   32.0017    8.2618   36.9968 C   0  0  0  0  0  0  0  0  0  0  0  0
   31.0735    9.0655   37.6518 C   0  0  0  0  0  0  0  0  0  0  0  0
   30.1767    9.8456   36.9136 C   0  0  0  0  0  0  0  0  0  0  0  0
   28.2240    9.7859   33.9249 C   0  0  0  0  0  0  0  0  0  0  0  0
   28.5444    9.2859   32.6527 C   0  0  0  0  0  0  0  0  0  0  0  0
   27.6331    8.4942   31.9495 C   0  0  0  0  0  0  0  0  0  0  0  0
   26.3936    8.1937   32.5069 C   0  0  0  0  0  0  0  0  0  0  0  0
   26.0648    8.6749   33.7713 C   0  0  0  0  0  0  0  0  0  0  0  0
   26.9758    9.4594   34.4781 C   0  0  0  0  0  0  0  0  0  0  0  0
   30.5528   12.8630   34.7984 C   0  0  0  0  0  0  0  0  0  0  0  0
   27.2165   11.8434   28.2678 F   0  0  0  0  0  0  0  0  0  0  0  0
   24.5792   12.5799   28.3659 F   0  0  0  0  0  0  0  0  0  0  0  0
   28.4807   12.0076   30.4960 H   0  0  0  0  0  0  0  0  0  0  0  0
   23.7165   13.2975   30.6977 H   0  0  0  0  0  0  0  0  0  0  0  0
   25.2351   13.7178   35.0173 H   0  0  0  0  0  0  0  0  0  0  0  0
   29.4623   13.1983   32.3439 H   0  0  0  0  0  0  0  0  0  0  0  0
   30.6231   11.3870   33.2955 H   0  0  0  0  0  0  0  0  0  0  0  0
   28.5436   11.1928   35.4781 H   0  0  0  0  0  0  0  0  0  0  0  0
   31.2086    8.9825   33.7840 H   0  0  0  0  0  0  0  0  0  0  0  0
   32.7615    7.6076   35.0966 H   0  0  0  0  0  0  0  0  0  0  0  0
   32.6890    7.6426   37.5731 H   0  0  0  0  0  0  0  0  0  0  0  0
   31.0393    9.0814   38.7376 H   0  0  0  0  0  0  0  0  0  0  0  0
   29.4562   10.4593   37.4505 H   0  0  0  0  0  0  0  0  0  0  0  0
   29.4979    9.5177   32.1870 H   0  0  0  0  0  0  0  0  0  0  0  0
   27.8891    8.1160   30.9636 H   0  0  0  0  0  0  0  0  0  0  0  0
   25.6816    7.5832   31.9575 H   0  0  0  0  0  0  0  0  0  0  0  0
   25.0963    8.4465   34.2087 H   0  0  0  0  0  0  0  0  0  0  0  0
   26.6978    9.8343   35.4599 H   0  0  0  0  0  0  0  0  0  0  0  0
   31.2632   12.3729   35.4734 H   0  0  0  0  0  0  0  0  0  0  0  0
   29.8512   13.4439   35.4036 H   0  0  0  0  0  0  0  0  0  0  0  0
   31.1321   13.5647   34.1873 H   0  0  0  0  0  0  0  0  0  0  0  0
  1 10  2  0  0  0  0
  1  2  1  0  0  0  0
  1 29  1  0  0  0  0
  2  3  2  0  0  0  0
  2 27  1  0  0  0  0
  3  4  1  0  0  0  0
  3 28  1  0  0  0  0
  4  5  2  0  0  0  0
  4 30  1  0  0  0  0
  5 10  1  0  0  0  0
  5  6  1  0  0  0  0
  6  7  2  0  0  0  0
  7  8  1  0  0  0  0
  7 31  1  0  0  0  0
  8  9  2  0  0  0  0
  9 11  1  0  0  0  0
  9 10  1  0  0  0  0
 11 12  1  0  0  0  0
 11 32  1  0  0  0  0
 12 26  1  0  0  0  0
 12 14  1  0  0  0  0
 12 33  1  6  0  0  0
 13 14  1  0  0  0  0
 13 15  2  0  0  0  0
 13 19  1  0  0  0  0
 14 20  1  0  0  0  0
 14 34  1  0  0  0  0
 15 16  1  0  0  0  0
 15 35  1  0  0  0  0
 16 17  2  0  0  0  0
 16 36  1  0  0  0  0
 17 18  1  0  0  0  0
 17 37  1  0  0  0  0
 18 19  2  0  0  0  0
 18 38  1  0  0  0  0
 19 39  1  0  0  0  0
 20 25  2  0  0  0  0
 20 21  1  0  0  0  0
 21 22  2  0  0  0  0
 21 40  1  0  0  0  0
 22 23  1  0  0  0  0
 22 41  1  0  0  0  0
 23 24  2  0  0  0  0
 23 42  1  0  0  0  0
 24 25  1  0  0  0  0
 24 43  1  0  0  0  0
 25 44  1  0  0  0  0
 26 45  1  0  0  0  0
 26 46  1  0  0  0  0
 26 47  1  0  0  0  0
M  END
$$$$
