VRT
 OpenBabel04161910193D

 50 52  0  0  1  0  0  0  0  0999 V2000
  -24.2819    6.2307   27.3378 C   0  0  0  0  0  0  0  0  0  0  0  0
  -24.3758    8.4343   28.4488 N   0  3  0  0  0  0  0  0  0  0  0  0
  -25.2173    5.6246   26.8802 O   0  0  0  0  0  0  0  0  0  0  0  0
  -20.3012   11.2495   22.0681 N   0  0  0  0  0  0  0  0  0  0  0  0
  -19.9016   10.8453   23.2487 C   0  0  0  0  0  0  0  0  0  0  0  0
  -20.3229    9.6553   23.8983 N   0  3  0  0  0  0  0  0  0  0  0  0
  -21.2110    8.8730   23.1924 C   0  0  0  0  0  0  0  0  0  0  0  0
  -21.6939    9.2096   21.9311 C   0  0  0  0  0  0  0  0  0  0  0  0
  -21.2291   10.4868   21.2840 C   0  0  0  0  0  0  0  0  0  0  0  0
  -21.6459   10.9204   20.0935 N   0  0  0  0  0  0  0  0  0  0  0  0
  -22.5728    8.2396   21.5051 N   0  0  0  0  0  0  0  0  0  0  0  0
  -22.6189    7.3100   22.4629 C   0  0  0  0  0  0  0  0  0  0  0  0
  -21.8057    7.6530   23.5390 N   0  3  0  0  0  0  0  0  0  0  0  0
  -24.3038    6.9579   28.6740 C   0  0  1  0  0  0  0  0  0  0  0  0
  -25.4466    6.5975   29.6032 C   0  0  0  0  0  0  0  0  0  0  0  0
  -24.3006    4.4570   30.3719 C   0  0  0  0  0  0  0  0  0  0  0  0
  -25.5932    5.1175   29.9458 C   0  0  0  0  0  0  0  0  0  0  0  0
  -21.6430    6.8523   24.7411 C   0  0  1  0  0  0  0  0  0  0  0  0
  -23.1655    6.5495   26.5969 N   0  0  0  0  0  0  0  0  0  0  0  0
  -22.8430    6.0272   25.2577 C   0  0  2  0  0  0  0  0  0  0  0  0
  -22.3652    4.5590   25.2295 C   0  0  2  0  0  0  0  0  0  0  0  0
  -22.7449    3.7719   26.3571 O   0  0  0  0  0  0  0  0  0  0  0  0
  -20.8445    4.6804   25.1515 C   0  0  2  0  0  0  0  0  0  0  0  0
  -20.5238    5.9838   24.6156 O   0  0  0  0  0  0  0  0  0  0  0  0
  -20.1982    3.6221   24.2543 C   0  0  0  0  0  0  0  0  0  0  0  0
  -18.7958    3.8452   24.1244 O   0  0  0  0  0  0  0  0  0  0  0  0
  -24.3923    8.9322   29.3420 H   0  0  0  0  0  0  0  0  0  0  0  0
  -23.5784    8.7650   27.8908 H   0  0  0  0  0  0  0  0  0  0  0  0
  -19.1691   11.4718   23.8534 H   0  0  0  0  0  0  0  0  0  0  0  0
  -19.9630    9.3883   24.8013 H   0  0  0  0  0  0  0  0  0  0  0  0
  -22.2983   10.2851   19.6452 H   0  0  0  0  0  0  0  0  0  0  0  0
  -23.2231    6.4167   22.4201 H   0  0  0  0  0  0  0  0  0  0  0  0
  -23.3391    6.7734   29.1516 H   0  0  0  0  0  0  0  0  0  0  0  0
  -26.3882    6.9326   29.1625 H   0  0  0  0  0  0  0  0  0  0  0  0
  -25.2917    7.1401   30.5461 H   0  0  0  0  0  0  0  0  0  0  0  0
  -24.4799    3.4019   30.6041 H   0  0  0  0  0  0  0  0  0  0  0  0
  -23.8987    4.9522   31.2601 H   0  0  0  0  0  0  0  0  0  0  0  0
  -23.5652    4.5130   29.5660 H   0  0  0  0  0  0  0  0  0  0  0  0
  -25.9902    4.5844   29.0766 H   0  0  0  0  0  0  0  0  0  0  0  0
  -26.3193    5.0191   30.7626 H   0  0  0  0  0  0  0  0  0  0  0  0
  -21.3795    7.5911   25.5405 H   0  0  0  0  0  0  0  0  0  0  0  0
  -22.4359    7.0697   27.0564 H   0  0  0  0  0  0  0  0  0  0  0  0
  -23.7210    6.1445   24.6149 H   0  0  0  0  0  0  0  0  0  0  0  0
  -22.7585    4.0717   24.3299 H   0  0  0  0  0  0  0  0  0  0  0  0
  -23.7185    3.7021   26.3983 H   0  0  0  0  0  0  0  0  0  0  0  0
  -20.4094    4.5930   26.1546 H   0  0  0  0  0  0  0  0  0  0  0  0
  -20.6457    3.6492   23.2554 H   0  0  0  0  0  0  0  0  0  0  0  0
  -20.3440    2.6285   24.6880 H   0  0  0  0  0  0  0  0  0  0  0  0
  -18.6503    4.7214   23.7220 H   0  0  0  0  0  0  0  0  0  0  0  0
  -25.2400    8.6632   27.9259 H   0  0  0  0  0  0  0  0  0  0  0  0
  1  3  2  0  0  0  0
  1 14  1  0  0  0  0
  1 19  1  0  0  0  0
  2 14  1  0  0  0  0
  2 27  1  0  0  0  0
  2 28  1  0  0  0  0
  2 50  1  0  0  0  0
  4  5  1  0  0  0  0
  4  9  1  0  0  0  0
  5  6  2  0  0  0  0
  5 29  1  0  0  0  0
  6  7  1  0  0  0  0
  6 30  1  0  0  0  0
  7  8  2  0  0  0  0
  7 13  1  0  0  0  0
  8  9  1  0  0  0  0
  8 11  1  0  0  0  0
  9 10  2  0  0  0  0
 10 31  1  0  0  0  0
 11 12  1  0  0  0  0
 12 13  2  0  0  0  0
 12 32  1  0  0  0  0
 13 18  1  0  0  0  0
 14 15  1  0  0  0  0
 14 33  1  1  0  0  0
 15 17  1  0  0  0  0
 15 34  1  0  0  0  0
 15 35  1  0  0  0  0
 16 17  1  0  0  0  0
 16 36  1  0  0  0  0
 16 37  1  0  0  0  0
 16 38  1  0  0  0  0
 17 39  1  0  0  0  0
 17 40  1  0  0  0  0
 18 20  1  0  0  0  0
 18 24  1  0  0  0  0
 18 41  1  1  0  0  0
 19 20  1  0  0  0  0
 19 42  1  0  0  0  0
 20 21  1  0  0  0  0
 20 43  1  6  0  0  0
 21 22  1  0  0  0  0
 21 23  1  0  0  0  0
 21 44  1  6  0  0  0
 22 45  1  0  0  0  0
 23 24  1  0  0  0  0
 23 25  1  0  0  0  0
 23 46  1  1  0  0  0
 25 26  1  0  0  0  0
 25 47  1  0  0  0  0
 25 48  1  0  0  0  0
 26 49  1  0  0  0  0
M  CHG  3   2   1   6   1  13   1
M  END
$$$$
