XCZ
 OpenBabel04161910023D

 18 18  0  0  0  0  0  0  0  0999 V2000
   17.5002    4.5143   14.4391 C   0  0  0  0  0  0  0  0  0  0  0  0
   18.1667    3.5582   15.1796 C   0  0  0  0  0  0  0  0  0  0  0  0
   16.1140    4.4515   14.4345 C   0  0  0  0  0  0  0  0  0  0  0  0
   16.1991    2.6540   15.8220 C   0  0  0  0  0  0  0  0  0  0  0  0
   15.2877    5.4422   13.6731 C   0  0  0  0  0  0  0  0  0  0  0  0
   17.5459    2.5876   15.8735 N   0  0  0  0  0  0  0  0  0  0  0  0
   15.4395    3.5186   15.1222 N   0  0  0  0  0  0  0  0  0  0  0  0
   15.7803   -0.0479   16.0858 N   0  0  0  0  0  0  0  0  0  0  0  0
   15.7986    1.4248   18.1290 O   0  0  0  0  0  0  0  0  0  0  0  0
   13.8782    1.5023   16.4909 O   0  0  0  0  0  0  0  0  0  0  0  0
   15.3095    1.4108   16.7642 S   0  0  0  0  0  0  0  0  0  0  0  0
   18.0410    5.2772   13.8929 H   0  0  0  0  0  0  0  0  0  0  0  0
   19.2542    3.5577   15.2451 H   0  0  0  0  0  0  0  0  0  0  0  0
   14.2207    5.2300   13.7959 H   0  0  0  0  0  0  0  0  0  0  0  0
   15.5212    5.3911   12.6045 H   0  0  0  0  0  0  0  0  0  0  0  0
   15.4733    6.4560   14.0408 H   0  0  0  0  0  0  0  0  0  0  0  0
   15.4476   -0.8954   16.5321 H   0  0  0  0  0  0  0  0  0  0  0  0
   16.5090   -0.0440   15.3839 H   0  0  0  0  0  0  0  0  0  0  0  0
  1  2  2  0  0  0  0
  1  3  1  0  0  0  0
  1 12  1  0  0  0  0
  2  6  1  0  0  0  0
  2 13  1  0  0  0  0
  3  5  1  0  0  0  0
  3  7  2  0  0  0  0
  4  6  2  0  0  0  0
  4  7  1  0  0  0  0
  4 11  1  0  0  0  0
  5 14  1  0  0  0  0
  5 15  1  0  0  0  0
  5 16  1  0  0  0  0
  8 11  1  0  0  0  0
  8 17  1  0  0  0  0
  8 18  1  0  0  0  0
  9 11  2  0  0  0  0
 10 11  2  0  0  0  0
M  END
$$$$
