XHA
 OpenBabel04161911113D

 53 54  0  0  1  0  0  0  0  0999 V2000
  -16.0022    3.1570   37.3056 C   0  0  2  0  0  0  0  0  0  0  0  0
  -13.6238    8.0755   33.1540 C   0  0  0  0  0  0  0  0  0  0  0  0
  -15.1294    1.9036   37.3945 C   0  0  1  0  0  0  0  0  0  0  0  0
  -13.7836    2.4237   37.8583 C   0  0  1  0  0  0  0  0  0  0  0  0
  -15.8791    7.3086   36.1141 C   0  0  0  0  0  0  0  0  0  0  0  0
  -14.1628    3.4819   38.8946 C   0  0  1  0  0  0  0  0  0  0  0  0
  -13.0417    4.4623   39.2539 C   0  0  0  0  0  0  0  0  0  0  0  0
  -14.9930    5.4777   37.5612 C   0  0  0  0  0  0  0  0  0  0  0  0
  -16.0016    5.8596   36.5124 C   0  0  0  0  0  0  0  0  0  0  0  0
  -15.3818    7.4635   34.7046 C   0  0  0  0  0  0  0  0  0  0  0  0
  -14.0828    7.9136   34.4590 C   0  0  0  0  0  0  0  0  0  0  0  0
  -18.9172    2.0896   39.3541 N   0  0  0  0  0  0  0  0  0  0  0  0
  -15.3431    4.1835   38.2142 N   0  3  1  0  0  0  0  0  0  0  0  0
  -17.4784    2.9769   37.6247 C   0  0  0  0  0  0  0  0  0  0  0  0
  -19.3245    1.7862   40.7094 C   0  0  0  0  0  0  0  0  0  0  0  0
  -17.7314    2.7101   39.1118 C   0  0  0  0  0  0  0  0  0  0  0  0
  -16.9767    3.1162   39.9578 O   0  0  0  0  0  0  0  0  0  0  0  0
  -15.7029    0.9873   38.3039 O   0  0  0  0  0  0  0  0  0  0  0  0
  -12.9659    1.4298   38.4318 O   0  0  0  0  0  0  0  0  0  0  0  0
  -12.3480    4.9676   38.1110 O   0  0  0  0  0  0  0  0  0  0  0  0
  -14.4450    7.7775   32.0783 C   0  0  0  0  0  0  0  0  0  0  0  0
  -15.7466    7.3262   32.3043 C   0  0  0  0  0  0  0  0  0  0  0  0
  -16.6411    7.0143   31.1472 C   0  0  0  0  0  0  0  0  0  0  0  0
  -16.4440    7.8556   30.0938 F   0  0  0  0  0  0  0  0  0  0  0  0
  -16.4495    5.7491   30.6753 F   0  0  0  0  0  0  0  0  0  0  0  0
  -17.9645    7.1022   31.4680 F   0  0  0  0  0  0  0  0  0  0  0  0
  -16.2040    7.1607   33.6172 C   0  0  0  0  0  0  0  0  0  0  0  0
  -15.9206    3.5282   36.2892 H   0  0  0  0  0  0  0  0  0  0  0  0
  -12.6168    8.4383   32.9781 H   0  0  0  0  0  0  0  0  0  0  0  0
  -15.0614    1.4287   36.4147 H   0  0  0  0  0  0  0  0  0  0  0  0
  -13.2511    2.8849   37.0198 H   0  0  0  0  0  0  0  0  0  0  0  0
  -15.2001    7.8221   36.8008 H   0  0  0  0  0  0  0  0  0  0  0  0
  -16.8646    7.7625   36.1973 H   0  0  0  0  0  0  0  0  0  0  0  0
  -14.5143    3.0202   39.8249 H   0  0  0  0  0  0  0  0  0  0  0  0
  -12.3120    3.9720   39.8888 H   0  0  0  0  0  0  0  0  0  0  0  0
  -13.4658    5.3248   39.7850 H   0  0  0  0  0  0  0  0  0  0  0  0
  -14.9343    6.2104   38.3652 H   0  0  0  0  0  0  0  0  0  0  0  0
  -14.0416    5.3408   37.0624 H   0  0  0  0  0  0  0  0  0  0  0  0
  -15.8446    5.2349   35.6272 H   0  0  0  0  0  0  0  0  0  0  0  0
  -17.0012    5.6804   36.9126 H   0  0  0  0  0  0  0  0  0  0  0  0
  -13.4238    8.1507   35.2854 H   0  0  0  0  0  0  0  0  0  0  0  0
  -19.4954    1.7912   38.5885 H   0  0  0  0  0  0  0  0  0  0  0  0
  -17.8569    2.1429   37.0360 H   0  0  0  0  0  0  0  0  0  0  0  0
  -18.0394    3.8783   37.3400 H   0  0  0  0  0  0  0  0  0  0  0  0
  -20.2841    1.2640   40.6724 H   0  0  0  0  0  0  0  0  0  0  0  0
  -19.4312    2.7195   41.2692 H   0  0  0  0  0  0  0  0  0  0  0  0
  -18.5752    1.1542   41.1949 H   0  0  0  0  0  0  0  0  0  0  0  0
  -15.0903    0.2272   38.4050 H   0  0  0  0  0  0  0  0  0  0  0  0
  -12.7315    0.7786   37.7353 H   0  0  0  0  0  0  0  0  0  0  0  0
  -11.9626    4.2221   37.6155 H   0  0  0  0  0  0  0  0  0  0  0  0
  -14.0840    7.9093   31.0589 H   0  0  0  0  0  0  0  0  0  0  0  0
  -17.2188    6.8122   33.7834 H   0  0  0  0  0  0  0  0  0  0  0  0
  -15.9997    4.3650   39.0074 H   0  0  0  0  0  0  0  0  0  0  0  0
  1  3  1  0  0  0  0
  1 13  1  0  0  0  0
  1 14  1  0  0  0  0
  1 28  1  6  0  0  0
  2 11  2  0  0  0  0
  2 21  1  0  0  0  0
  2 29  1  0  0  0  0
  3  4  1  0  0  0  0
  3 18  1  0  0  0  0
  3 30  1  6  0  0  0
  4  6  1  0  0  0  0
  4 19  1  0  0  0  0
  4 31  1  6  0  0  0
  5  9  1  0  0  0  0
  5 10  1  0  0  0  0
  5 32  1  0  0  0  0
  5 33  1  0  0  0  0
  6  7  1  0  0  0  0
  6 13  1  0  0  0  0
  6 34  1  1  0  0  0
  7 20  1  0  0  0  0
  7 35  1  0  0  0  0
  7 36  1  0  0  0  0
  8  9  1  0  0  0  0
  8 13  1  0  0  0  0
  8 37  1  0  0  0  0
  8 38  1  0  0  0  0
  9 39  1  0  0  0  0
  9 40  1  0  0  0  0
 10 11  1  0  0  0  0
 10 27  2  0  0  0  0
 11 41  1  0  0  0  0
 12 15  1  0  0  0  0
 12 16  1  0  0  0  0
 12 42  1  0  0  0  0
 13 53  1  1  0  0  0
 14 16  1  0  0  0  0
 14 43  1  0  0  0  0
 14 44  1  0  0  0  0
 15 45  1  0  0  0  0
 15 46  1  0  0  0  0
 15 47  1  0  0  0  0
 16 17  2  0  0  0  0
 18 48  1  0  0  0  0
 19 49  1  0  0  0  0
 20 50  1  0  0  0  0
 21 22  2  0  0  0  0
 21 51  1  0  0  0  0
 22 23  1  0  0  0  0
 22 27  1  0  0  0  0
 23 24  1  0  0  0  0
 23 25  1  0  0  0  0
 23 26  1  0  0  0  0
 27 52  1  0  0  0  0
M  CHG  1  13   1
M  END
$$$$
