XLO
 OpenBabel04161911593D

 29 30  0  0  0  0  0  0  0  0999 V2000
  -19.7731    1.5340  -29.7320 C   0  0  0  0  0  0  0  0  0  0  0  0
  -19.2199    1.9594  -28.5269 C   0  0  0  0  0  0  0  0  0  0  0  0
  -19.7070    1.4619  -27.3198 C   0  0  0  0  0  0  0  0  0  0  0  0
  -20.7526    0.5286  -27.2961 C   0  0  0  0  0  0  0  0  0  0  0  0
  -21.3068    0.1201  -28.5205 C   0  0  0  0  0  0  0  0  0  0  0  0
  -20.8282    0.6107  -29.7514 C   0  0  0  0  0  0  0  0  0  0  0  0
  -21.4306    0.1579  -31.0648 C   0  0  0  0  0  0  0  0  0  0  0  0
  -21.2848   -0.0515  -26.0475 C   0  0  0  0  0  0  0  0  0  0  0  0
  -20.8002    0.1654  -24.8113 C   0  0  0  0  0  0  0  0  0  0  0  0
  -21.3386   -0.4938  -23.6081 C   0  0  0  0  0  0  0  0  0  0  0  0
  -21.5242   -1.8833  -23.6279 C   0  0  0  0  0  0  0  0  0  0  0  0
  -21.9950   -2.5572  -22.5011 C   0  0  0  0  0  0  0  0  0  0  0  0
  -22.2535   -1.8460  -21.3401 C   0  0  0  0  0  0  0  0  0  0  0  0
  -22.0725   -0.4727  -21.2816 C   0  0  0  0  0  0  0  0  0  0  0  0
  -21.6093    0.2061  -22.4220 C   0  0  0  0  0  0  0  0  0  0  0  0
  -22.5336   -0.4733  -31.0086 O   0  0  0  0  0  0  0  0  0  0  0  0
  -20.7875    0.4403  -32.1254 O   0  0  0  0  0  0  0  0  0  0  0  0
  -22.6740   -2.5541  -20.2522 O   0  0  0  0  0  0  0  0  0  0  0  0
  -21.3954    1.9192  -22.2906 Cl  0  0  0  0  0  0  0  0  0  0  0  0
  -19.3896    1.9194  -30.6758 H   0  0  0  0  0  0  0  0  0  0  0  0
  -18.4073    2.6794  -28.5333 H   0  0  0  0  0  0  0  0  0  0  0  0
  -19.2500    1.8201  -26.4035 H   0  0  0  0  0  0  0  0  0  0  0  0
  -22.1245   -0.6004  -28.5501 H   0  0  0  0  0  0  0  0  0  0  0  0
  -22.1365   -0.7165  -26.1837 H   0  0  0  0  0  0  0  0  0  0  0  0
  -19.9634    0.8318  -24.6336 H   0  0  0  0  0  0  0  0  0  0  0  0
  -21.2901   -2.4605  -24.5227 H   0  0  0  0  0  0  0  0  0  0  0  0
  -22.1386   -3.6313  -22.5310 H   0  0  0  0  0  0  0  0  0  0  0  0
  -22.3017    0.0822  -20.3765 H   0  0  0  0  0  0  0  0  0  0  0  0
  -22.2384   -2.1770  -19.4700 H   0  0  0  0  0  0  0  0  0  0  0  0
  1  2  2  0  0  0  0
  1  6  1  0  0  0  0
  1 20  1  0  0  0  0
  2  3  1  0  0  0  0
  2 21  1  0  0  0  0
  3  4  2  0  0  0  0
  3 22  1  0  0  0  0
  4  5  1  0  0  0  0
  4  8  1  0  0  0  0
  5  6  2  0  0  0  0
  5 23  1  0  0  0  0
  6  7  1  0  0  0  0
  7 16  2  0  0  0  0
  7 17  1  0  0  0  0
  8  9  2  0  0  0  0
  8 24  1  0  0  0  0
  9 10  1  0  0  0  0
  9 25  1  0  0  0  0
 10 11  2  0  0  0  0
 10 15  1  0  0  0  0
 11 12  1  0  0  0  0
 11 26  1  0  0  0  0
 12 13  2  0  0  0  0
 12 27  1  0  0  0  0
 13 14  1  0  0  0  0
 13 18  1  0  0  0  0
 14 15  2  0  0  0  0
 14 28  1  0  0  0  0
 15 19  1  0  0  0  0
 18 29  1  0  0  0  0
M  END
$$$$
