XMS
 OpenBabel04161910183D

 35 37  0  0  1  0  0  0  0  0999 V2000
   11.0227   62.6373   24.2154 C   0  0  0  0  0  0  0  0  0  0  0  0
   12.1546   62.2170   24.9949 N   0  3  0  0  0  0  0  0  0  0  0  0
   12.1592   60.9934   25.5574 N   0  0  0  0  0  0  0  0  0  0  0  0
   13.3128   60.8605   26.2032 N   0  0  0  0  0  0  0  0  0  0  0  0
   14.0279   62.0213   26.0442 C   0  0  0  0  0  0  0  0  0  0  0  0
   15.2931   62.3935   26.5167 C   0  0  0  0  0  0  0  0  0  0  0  0
   15.7958   63.6778   26.2113 C   0  0  0  0  0  0  0  0  0  0  0  0
   15.0065   64.5563   25.4464 C   0  0  0  0  0  0  0  0  0  0  0  0
   13.7455   64.1960   24.9611 C   0  0  0  0  0  0  0  0  0  0  0  0
   13.2915   62.9183   25.2811 C   0  0  0  0  0  0  0  0  0  0  0  0
   17.1727   64.0788   26.7612 C   0  0  1  0  0  0  0  0  0  0  0  0
   17.8213   65.3135   26.1176 C   0  0  0  0  0  0  0  0  0  0  0  0
   18.1298   65.0637   24.6436 C   0  0  0  0  0  0  0  0  0  0  0  0
   17.6071   65.8925   23.8446 O   0  0  0  0  0  0  0  0  0  0  0  0
   18.8964   64.0893   24.4061 O   0  0  0  0  0  0  0  0  0  0  0  0
   17.1456   64.2560   28.2913 C   0  0  0  0  0  0  0  0  0  0  0  0
   18.2817   63.9141   29.0444 C   0  0  0  0  0  0  0  0  0  0  0  0
   18.2823   64.0438   30.4360 C   0  0  0  0  0  0  0  0  0  0  0  0
   17.1466   64.5180   31.0879 C   0  0  0  0  0  0  0  0  0  0  0  0
   17.1410   64.6657   32.8038 Cl  0  0  0  0  0  0  0  0  0  0  0  0
   16.0143   64.8732   30.3612 C   0  0  0  0  0  0  0  0  0  0  0  0
   16.0188   64.7540   28.9693 C   0  0  0  0  0  0  0  0  0  0  0  0
   11.1768   63.6544   23.8484 H   0  0  0  0  0  0  0  0  0  0  0  0
   10.1358   62.6081   24.8524 H   0  0  0  0  0  0  0  0  0  0  0  0
   10.9118   61.9546   23.3701 H   0  0  0  0  0  0  0  0  0  0  0  0
   15.8720   61.6984   27.1172 H   0  0  0  0  0  0  0  0  0  0  0  0
   15.3722   65.5491   25.1914 H   0  0  0  0  0  0  0  0  0  0  0  0
   13.1757   64.8889   24.3532 H   0  0  0  0  0  0  0  0  0  0  0  0
   17.8223   63.2139   26.5578 H   0  0  0  0  0  0  0  0  0  0  0  0
   18.7801   65.5438   26.6002 H   0  0  0  0  0  0  0  0  0  0  0  0
   17.2003   66.2091   26.2409 H   0  0  0  0  0  0  0  0  0  0  0  0
   19.1724   63.5423   28.5402 H   0  0  0  0  0  0  0  0  0  0  0  0
   19.1690   63.7700   30.9998 H   0  0  0  0  0  0  0  0  0  0  0  0
   15.1237   65.2379   30.8640 H   0  0  0  0  0  0  0  0  0  0  0  0
   15.1243   65.0360   28.4183 H   0  0  0  0  0  0  0  0  0  0  0  0
  1  2  1  0  0  0  0
  1 23  1  0  0  0  0
  1 24  1  0  0  0  0
  1 25  1  0  0  0  0
  2  3  1  0  0  0  0
  2 10  2  0  0  0  0
  3  4  1  0  0  0  0
  4  5  2  0  0  0  0
  5  6  1  0  0  0  0
  5 10  1  0  0  0  0
  6  7  2  0  0  0  0
  6 26  1  0  0  0  0
  7  8  1  0  0  0  0
  7 11  1  0  0  0  0
  8  9  2  0  0  0  0
  8 27  1  0  0  0  0
  9 10  1  0  0  0  0
  9 28  1  0  0  0  0
 11 12  1  0  0  0  0
 11 16  1  0  0  0  0
 11 29  1  6  0  0  0
 12 13  1  0  0  0  0
 12 30  1  0  0  0  0
 12 31  1  0  0  0  0
 13 14  2  0  0  0  0
 13 15  1  0  0  0  0
 16 17  2  0  0  0  0
 16 22  1  0  0  0  0
 17 18  1  0  0  0  0
 17 32  1  0  0  0  0
 18 19  2  0  0  0  0
 18 33  1  0  0  0  0
 19 20  1  0  0  0  0
 19 21  1  0  0  0  0
 21 22  2  0  0  0  0
 21 34  1  0  0  0  0
 22 35  1  0  0  0  0
M  CHG  1   2   1
M  END
$$$$
