XOC
 OpenBabel04161909343D

 46 49  0  0  0  0  0  0  0  0999 V2000
   -7.4048   -1.8053   10.5524 C   0  0  0  0  0  0  0  0  0  0  0  0
   -7.3053   -0.4319   10.3892 C   0  0  0  0  0  0  0  0  0  0  0  0
   -7.2890    0.3759   11.5127 C   0  0  0  0  0  0  0  0  0  0  0  0
   -7.3558   -0.2057   12.7877 C   0  0  0  0  0  0  0  0  0  0  0  0
   -7.4555   -1.5827   12.9523 C   0  0  0  0  0  0  0  0  0  0  0  0
   -7.5156   -2.3931   11.8326 C   0  0  0  0  0  0  0  0  0  0  0  0
   -6.3862   -4.4259   11.2133 C   0  0  0  0  0  0  0  0  0  0  0  0
   -5.4177   -5.2170   11.8229 C   0  0  0  0  0  0  0  0  0  0  0  0
   -4.3106   -5.6523   11.1105 C   0  0  0  0  0  0  0  0  0  0  0  0
   -4.1344   -5.2718    9.7775 C   0  0  0  0  0  0  0  0  0  0  0  0
   -5.0618   -4.4487    9.1596 C   0  0  0  0  0  0  0  0  0  0  0  0
   -6.1697   -4.0242    9.8765 C   0  0  0  0  0  0  0  0  0  0  0  0
   -8.0543   -5.5600   13.4625 C   0  0  0  0  0  0  0  0  0  0  0  0
   -9.1241   -6.6599   13.4596 C   0  0  0  0  0  0  0  0  0  0  0  0
   -7.7936   -8.5605   14.2960 C   0  0  0  0  0  0  0  0  0  0  0  0
   -7.3960   -9.9989   14.0593 C   0  0  0  0  0  0  0  0  0  0  0  0
   -7.4469  -10.3022   12.5872 C   0  0  0  0  0  0  0  0  0  0  0  0
   -8.9005  -10.2092   12.1436 C   0  0  0  0  0  0  0  0  0  0  0  0
   -9.5999   -8.9862   12.7029 C   0  0  0  0  0  0  0  0  0  0  0  0
   -7.4440   -3.8039   11.9289 N   0  0  0  0  0  0  0  0  0  0  0  0
   -8.4114   -4.4995   12.6632 N   0  0  0  0  0  0  0  0  0  0  0  0
   -8.5540   -8.0079   13.1123 N   0  3  0  0  0  0  0  0  0  0  0  0
   -7.0564   -5.6917   14.0939 O   0  0  0  0  0  0  0  0  0  0  0  0
   -7.3670   -2.9075    9.1305 S   0  0  0  0  0  0  0  0  0  0  0  0
   -7.2429    0.0009    9.3935 H   0  0  0  0  0  0  0  0  0  0  0  0
   -7.2258    1.4548   11.4077 H   0  0  0  0  0  0  0  0  0  0  0  0
   -7.3342    0.4411   13.6632 H   0  0  0  0  0  0  0  0  0  0  0  0
   -7.4615   -2.0131   13.9501 H   0  0  0  0  0  0  0  0  0  0  0  0
   -5.4778   -5.4770   12.8644 H   0  0  0  0  0  0  0  0  0  0  0  0
   -3.5788   -6.2942   11.5858 H   0  0  0  0  0  0  0  0  0  0  0  0
   -3.2669   -5.6216    9.2302 H   0  0  0  0  0  0  0  0  0  0  0  0
   -4.9264   -4.1395    8.1255 H   0  0  0  0  0  0  0  0  0  0  0  0
   -9.9097   -6.4472   12.7350 H   0  0  0  0  0  0  0  0  0  0  0  0
   -9.5405   -6.7427   14.4614 H   0  0  0  0  0  0  0  0  0  0  0  0
   -6.9082   -7.9477   14.4316 H   0  0  0  0  0  0  0  0  0  0  0  0
   -8.4610   -8.4923   15.1587 H   0  0  0  0  0  0  0  0  0  0  0  0
   -8.0881  -10.6628   14.5941 H   0  0  0  0  0  0  0  0  0  0  0  0
   -6.3894  -10.1619   14.4527 H   0  0  0  0  0  0  0  0  0  0  0  0
   -7.0488  -11.3020   12.3934 H   0  0  0  0  0  0  0  0  0  0  0  0
   -6.8281   -9.5761   12.0443 H   0  0  0  0  0  0  0  0  0  0  0  0
   -9.4418  -11.0892   12.4966 H   0  0  0  0  0  0  0  0  0  0  0  0
   -8.9433  -10.1724   11.0541 H   0  0  0  0  0  0  0  0  0  0  0  0
  -10.1811   -9.2275   13.6009 H   0  0  0  0  0  0  0  0  0  0  0  0
  -10.2444   -8.5223   11.9526 H   0  0  0  0  0  0  0  0  0  0  0  0
   -9.3641   -4.1887   12.6398 H   0  0  0  0  0  0  0  0  0  0  0  0
   -7.8991   -7.8764   12.3208 H   0  0  0  0  0  0  0  0  0  0  0  0
  1  2  2  0  0  0  0
  1  6  1  0  0  0  0
  1 24  1  0  0  0  0
  2  3  1  0  0  0  0
  2 25  1  0  0  0  0
  3  4  2  0  0  0  0
  3 26  1  0  0  0  0
  4  5  1  0  0  0  0
  4 27  1  0  0  0  0
  5  6  2  0  0  0  0
  5 28  1  0  0  0  0
  6 20  1  0  0  0  0
  7  8  2  0  0  0  0
  7 12  1  0  0  0  0
  7 20  1  0  0  0  0
  8  9  1  0  0  0  0
  8 29  1  0  0  0  0
  9 10  2  0  0  0  0
  9 30  1  0  0  0  0
 10 11  1  0  0  0  0
 10 31  1  0  0  0  0
 11 12  2  0  0  0  0
 11 32  1  0  0  0  0
 12 24  1  0  0  0  0
 13 14  1  0  0  0  0
 13 21  1  0  0  0  0
 13 23  2  0  0  0  0
 14 22  1  0  0  0  0
 14 33  1  0  0  0  0
 14 34  1  0  0  0  0
 15 16  1  0  0  0  0
 15 22  1  0  0  0  0
 15 35  1  0  0  0  0
 15 36  1  0  0  0  0
 16 17  1  0  0  0  0
 16 37  1  0  0  0  0
 16 38  1  0  0  0  0
 17 18  1  0  0  0  0
 17 39  1  0  0  0  0
 17 40  1  0  0  0  0
 18 19  1  0  0  0  0
 18 41  1  0  0  0  0
 18 42  1  0  0  0  0
 19 22  1  0  0  0  0
 19 43  1  0  0  0  0
 19 44  1  0  0  0  0
 20 21  1  0  0  0  0
 21 45  1  0  0  0  0
 22 46  1  0  0  0  0
M  CHG  1  22   1
M  END
$$$$
