XZN
 OpenBabel04161912103D

 66 69  0  0  0  0  0  0  0  0999 V2000
    8.7267   -5.7223   -1.4590 C   0  0  0  0  0  0  0  0  0  0  0  0
    0.7441   -0.4208   -4.7470 O   0  0  0  0  0  0  0  0  0  0  0  0
   14.1443   -4.2165   -2.0794 C   0  0  0  0  0  0  0  0  0  0  0  0
    3.9866    1.1938   -1.5139 N   0  0  0  0  0  0  0  0  0  0  0  0
    0.2930   -2.1631   -2.3913 Cl  0  0  0  0  0  0  0  0  0  0  0  0
    3.2797    0.5505   -5.9753 Cl  0  0  0  0  0  0  0  0  0  0  0  0
    5.0430    0.8031   -1.6081 C   0  0  0  0  0  0  0  0  0  0  0  0
    7.3836    1.0933   -1.6714 C   0  0  0  0  0  0  0  0  0  0  0  0
   10.1545   -1.1508   -1.5874 C   0  0  0  0  0  0  0  0  0  0  0  0
    8.0771   -3.0134   -1.7792 C   0  0  0  0  0  0  0  0  0  0  0  0
   13.9899   -3.0553   -1.0969 C   0  0  0  0  0  0  0  0  0  0  0  0
   12.7719   -2.1894   -1.4314 C   0  0  0  0  0  0  0  0  0  0  0  0
   17.7077   -8.6870   -1.6542 C   0  0  0  0  0  0  0  0  0  0  0  0
   15.5476   -5.6741   -0.5390 C   0  0  0  0  0  0  0  0  0  0  0  0
   15.0863   -6.2540   -2.8024 C   0  0  0  0  0  0  0  0  0  0  0  0
   16.8212   -6.5752   -0.5740 C   0  0  0  0  0  0  0  0  0  0  0  0
   16.3738   -7.0446   -2.9320 C   0  0  0  0  0  0  0  0  0  0  0  0
    8.6388    0.6434   -1.6377 N   0  0  0  0  0  0  0  0  0  0  0  0
    5.3728   -1.9990   -2.0173 N   0  0  0  0  0  0  0  0  0  0  0  0
    9.7658   -4.7773   -1.6547 O   0  0  0  0  0  0  0  0  0  0  0  0
   11.6618   -3.0677   -1.4641 O   0  0  0  0  0  0  0  0  0  0  0  0
    1.8874   -0.7979   -4.0888 C   0  0  0  0  0  0  0  0  0  0  0  0
    1.8213   -1.6260   -2.9735 C   0  0  0  0  0  0  0  0  0  0  0  0
    4.2960   -0.8445   -3.9083 C   0  0  0  0  0  0  0  0  0  0  0  0
    6.3251    0.2289   -1.7351 C   0  0  0  0  0  0  0  0  0  0  0  0
    4.2298   -1.6766   -2.7768 C   0  0  0  0  0  0  0  0  0  0  0  0
    9.3863   -3.4555   -1.6832 C   0  0  0  0  0  0  0  0  0  0  0  0
   10.4202   -2.5217   -1.5886 C   0  0  0  0  0  0  0  0  0  0  0  0
    6.4901   -1.1587   -1.8107 C   0  0  0  0  0  0  0  0  0  0  0  0
    8.8493   -0.6935   -1.6632 C   0  0  0  0  0  0  0  0  0  0  0  0
    7.7968   -1.6354   -1.7577 C   0  0  0  0  0  0  0  0  0  0  0  0
   15.3009   -5.1121   -1.8892 N   0  0  0  0  0  0  0  0  0  0  0  0
    2.9756   -2.0481   -2.3177 C   0  0  0  0  0  0  0  0  0  0  0  0
   16.6143   -7.6909   -1.5906 N   0  3  0  0  0  0  0  0  0  0  0  0
    0.2600    0.8264   -4.2398 C   0  0  0  0  0  0  0  0  0  0  0  0
    3.1376   -0.4209   -4.5605 C   0  0  0  0  0  0  0  0  0  0  0  0
    9.1672   -6.7266   -1.4433 H   0  0  0  0  0  0  0  0  0  0  0  0
    8.0073   -5.6712   -2.2805 H   0  0  0  0  0  0  0  0  0  0  0  0
    8.2244   -5.5424   -0.5028 H   0  0  0  0  0  0  0  0  0  0  0  0
   14.2318   -3.7781   -3.0960 H   0  0  0  0  0  0  0  0  0  0  0  0
   13.2293   -4.8225   -2.0619 H   0  0  0  0  0  0  0  0  0  0  0  0
    7.2143    2.1719   -1.6385 H   0  0  0  0  0  0  0  0  0  0  0  0
   10.9782   -0.4435   -1.5282 H   0  0  0  0  0  0  0  0  0  0  0  0
    7.2805   -3.7389   -1.8420 H   0  0  0  0  0  0  0  0  0  0  0  0
   14.8858   -2.4348   -1.1144 H   0  0  0  0  0  0  0  0  0  0  0  0
   13.8549   -3.4739   -0.0921 H   0  0  0  0  0  0  0  0  0  0  0  0
   12.8940   -1.7048   -2.4099 H   0  0  0  0  0  0  0  0  0  0  0  0
   12.6313   -1.4201   -0.6599 H   0  0  0  0  0  0  0  0  0  0  0  0
   17.8219   -9.1307   -0.6675 H   0  0  0  0  0  0  0  0  0  0  0  0
   18.6177   -8.1786   -1.9638 H   0  0  0  0  0  0  0  0  0  0  0  0
   17.4293   -9.4540   -2.3838 H   0  0  0  0  0  0  0  0  0  0  0  0
   15.7218   -4.8897    0.1990 H   0  0  0  0  0  0  0  0  0  0  0  0
   14.6947   -6.2893   -0.2153 H   0  0  0  0  0  0  0  0  0  0  0  0
   14.2922   -6.9037   -2.3954 H   0  0  0  0  0  0  0  0  0  0  0  0
   14.7904   -5.9036   -3.7868 H   0  0  0  0  0  0  0  0  0  0  0  0
   17.0151   -7.0435    0.3889 H   0  0  0  0  0  0  0  0  0  0  0  0
   17.6916   -5.9976   -0.9022 H   0  0  0  0  0  0  0  0  0  0  0  0
   17.2239   -6.3912   -3.1475 H   0  0  0  0  0  0  0  0  0  0  0  0
   16.2917   -7.8290   -3.6808 H   0  0  0  0  0  0  0  0  0  0  0  0
    5.3840   -2.9068   -1.5546 H   0  0  0  0  0  0  0  0  0  0  0  0
    5.2549   -0.5103   -4.2994 H   0  0  0  0  0  0  0  0  0  0  0  0
    2.8928   -2.6708   -1.4410 H   0  0  0  0  0  0  0  0  0  0  0  0
   -0.6503    1.0982   -4.7947 H   0  0  0  0  0  0  0  0  0  0  0  0
    1.0009    1.6209   -4.3797 H   0  0  0  0  0  0  0  0  0  0  0  0
    0.0067    0.7446   -3.1773 H   0  0  0  0  0  0  0  0  0  0  0  0
   15.7397   -8.1671   -1.3321 H   0  0  0  0  0  0  0  0  0  0  0  0
  1 20  1  0  0  0  0
  1 37  1  0  0  0  0
  1 38  1  0  0  0  0
  1 39  1  0  0  0  0
  2 22  1  0  0  0  0
  2 35  1  0  0  0  0
  3 11  1  0  0  0  0
  3 32  1  0  0  0  0
  3 40  1  0  0  0  0
  3 41  1  0  0  0  0
  4  7  3  0  0  0  0
  5 23  1  0  0  0  0
  6 36  1  0  0  0  0
  7 25  1  0  0  0  0
  8 18  2  0  0  0  0
  8 25  1  0  0  0  0
  8 42  1  0  0  0  0
  9 28  2  0  0  0  0
  9 30  1  0  0  0  0
  9 43  1  0  0  0  0
 10 27  2  0  0  0  0
 10 31  1  0  0  0  0
 10 44  1  0  0  0  0
 11 12  1  0  0  0  0
 11 45  1  0  0  0  0
 11 46  1  0  0  0  0
 12 21  1  0  0  0  0
 12 47  1  0  0  0  0
 12 48  1  0  0  0  0
 13 34  1  0  0  0  0
 13 49  1  0  0  0  0
 13 50  1  0  0  0  0
 13 51  1  0  0  0  0
 14 16  1  0  0  0  0
 14 32  1  0  0  0  0
 14 52  1  0  0  0  0
 14 53  1  0  0  0  0
 15 17  1  0  0  0  0
 15 32  1  0  0  0  0
 15 54  1  0  0  0  0
 15 55  1  0  0  0  0
 16 34  1  0  0  0  0
 16 56  1  0  0  0  0
 16 57  1  0  0  0  0
 17 34  1  0  0  0  0
 17 58  1  0  0  0  0
 17 59  1  0  0  0  0
 18 30  1  0  0  0  0
 19 26  1  0  0  0  0
 19 29  1  0  0  0  0
 19 60  1  0  0  0  0
 20 27  1  0  0  0  0
 21 28  1  0  0  0  0
 22 23  2  0  0  0  0
 22 36  1  0  0  0  0
 23 33  1  0  0  0  0
 24 26  1  0  0  0  0
 24 36  2  0  0  0  0
 24 61  1  0  0  0  0
 25 29  2  0  0  0  0
 26 33  2  0  0  0  0
 27 28  1  0  0  0  0
 29 31  1  0  0  0  0
 30 31  2  0  0  0  0
 33 62  1  0  0  0  0
 34 66  1  0  0  0  0
 35 63  1  0  0  0  0
 35 64  1  0  0  0  0
 35 65  1  0  0  0  0
M  CHG  1  34   1
M  END
$$$$
