Y0R
 OpenBabel04161910163D

 33 35  0  0  0  0  0  0  0  0999 V2000
  -27.2726   -5.2913   -1.7340 S   0  0  0  0  0  0  0  0  0  0  0  0
  -27.4100   -6.4541   -0.5426 N   0  0  0  0  0  0  0  0  0  0  0  0
  -27.5397   -5.9292   -3.0023 O   0  0  0  0  0  0  0  0  0  0  0  0
  -26.0754   -4.5453   -1.4545 O   0  0  0  0  0  0  0  0  0  0  0  0
  -28.6870   -4.2569   -1.4907 C   0  0  0  0  0  0  0  0  0  0  0  0
  -28.4455   -2.5786   -1.4767 S   0  0  0  0  0  0  0  0  0  0  0  0
  -30.1308   -2.2798   -1.3788 C   0  0  0  0  0  0  0  0  0  0  0  0
  -30.8594   -3.4387   -1.3107 C   0  0  0  0  0  0  0  0  0  0  0  0
  -30.0211   -4.5897   -1.3608 C   0  0  0  0  0  0  0  0  0  0  0  0
  -30.6575   -0.8998   -1.3973 C   0  0  0  0  0  0  0  0  0  0  0  0
  -31.9617   -0.4966   -1.5852 C   0  0  0  0  0  0  0  0  0  0  0  0
  -31.9094    0.8759   -1.4964 N   0  3  0  0  0  0  0  0  0  0  0  0
  -30.6416    1.2739   -1.2350 N   0  0  0  0  0  0  0  0  0  0  0  0
  -29.8659    0.2019   -1.2228 N   0  0  0  0  0  0  0  0  0  0  0  0
  -36.0267    4.8010   -1.9439 C   0  0  0  0  0  0  0  0  0  0  0  0
  -32.9498    1.8103   -1.6234 C   0  0  0  0  0  0  0  0  0  0  0  0
  -34.0751    1.5504   -2.4148 C   0  0  0  0  0  0  0  0  0  0  0  0
  -35.0708    2.5265   -2.5351 C   0  0  0  0  0  0  0  0  0  0  0  0
  -34.9678    3.7436   -1.8453 C   0  0  0  0  0  0  0  0  0  0  0  0
  -33.8496    3.9813   -1.0370 C   0  0  0  0  0  0  0  0  0  0  0  0
  -32.8364    3.0287   -0.9390 C   0  0  0  0  0  0  0  0  0  0  0  0
  -28.2002   -7.0878   -0.5848 H   0  0  0  0  0  0  0  0  0  0  0  0
  -26.5456   -6.7187   -0.0791 H   0  0  0  0  0  0  0  0  0  0  0  0
  -31.9482   -3.4951   -1.2139 H   0  0  0  0  0  0  0  0  0  0  0  0
  -30.3640   -5.6168   -1.3611 H   0  0  0  0  0  0  0  0  0  0  0  0
  -32.8814   -1.0398   -1.7374 H   0  0  0  0  0  0  0  0  0  0  0  0
  -36.8333    4.5037   -2.6191 H   0  0  0  0  0  0  0  0  0  0  0  0
  -35.5959    5.7346   -2.3216 H   0  0  0  0  0  0  0  0  0  0  0  0
  -36.4618    4.9876   -0.9559 H   0  0  0  0  0  0  0  0  0  0  0  0
  -34.1622    0.6360   -2.9929 H   0  0  0  0  0  0  0  0  0  0  0  0
  -35.9215    2.3378   -3.1836 H   0  0  0  0  0  0  0  0  0  0  0  0
  -33.7573    4.9116   -0.4911 H   0  0  0  0  0  0  0  0  0  0  0  0
  -31.9860    3.2265   -0.2895 H   0  0  0  0  0  0  0  0  0  0  0  0
  1  2  1  0  0  0  0
  1  3  2  0  0  0  0
  1  4  2  0  0  0  0
  1  5  1  0  0  0  0
  2 22  1  0  0  0  0
  2 23  1  0  0  0  0
  5  6  1  0  0  0  0
  5  9  2  0  0  0  0
  6  7  1  0  0  0  0
  7  8  2  0  0  0  0
  7 10  1  0  0  0  0
  8  9  1  0  0  0  0
  8 24  1  0  0  0  0
  9 25  1  0  0  0  0
 10 11  1  0  0  0  0
 10 14  2  0  0  0  0
 11 12  2  0  0  0  0
 11 26  1  0  0  0  0
 12 13  1  0  0  0  0
 12 16  1  0  0  0  0
 13 14  1  0  0  0  0
 15 19  1  0  0  0  0
 15 27  1  0  0  0  0
 15 28  1  0  0  0  0
 15 29  1  0  0  0  0
 16 17  2  0  0  0  0
 16 21  1  0  0  0  0
 17 18  1  0  0  0  0
 17 30  1  0  0  0  0
 18 19  2  0  0  0  0
 18 31  1  0  0  0  0
 19 20  1  0  0  0  0
 20 21  2  0  0  0  0
 20 32  1  0  0  0  0
 21 33  1  0  0  0  0
M  CHG  1  12   1
M  END
$$$$
