YMX
 OpenBabel04161910213D

 76 81  0  0  0  0  0  0  0  0999 V2000
    6.4876   21.1944    6.0788 C   0  0  0  0  0  0  0  0  0  0  0  0
    7.4720   22.0876    5.3522 C   0  0  0  0  0  0  0  0  0  0  0  0
    7.8851   21.4425    4.1491 O   0  0  0  0  0  0  0  0  0  0  0  0
    6.8181   21.2632    3.2185 C   0  0  0  0  0  0  0  0  0  0  0  0
    5.6868   20.4322    3.8095 C   0  0  0  0  0  0  0  0  0  0  0  0
    5.2888   20.9913    5.1673 C   0  0  0  0  0  0  0  0  0  0  0  0
    4.3507   20.0995    5.8290 N   0  0  0  0  0  0  0  0  0  0  0  0
    3.0638   20.4238    6.2055 C   0  0  0  0  0  0  0  0  0  0  0  0
    2.5398   21.6842    5.9514 C   0  0  0  0  0  0  0  0  0  0  0  0
    1.3071   22.1324    6.4254 C   0  0  0  0  0  0  0  0  0  0  0  0
    0.8670   23.4294    6.1639 N   0  0  0  0  0  0  0  0  0  0  0  0
    1.5862   24.1883    5.1092 C   0  0  0  0  0  0  0  0  0  0  0  0
    0.8211   25.4654    4.7424 C   0  0  0  0  0  0  0  0  0  0  0  0
    0.4987   26.2601    6.0058 N   0  3  0  0  0  0  0  0  0  0  0  0
   -0.2586   27.5059    5.7084 C   0  0  0  0  0  0  0  0  0  0  0  0
   -0.2522   25.3950    7.0157 C   0  0  0  0  0  0  0  0  0  0  0  0
    0.6263   24.2034    7.3950 C   0  0  0  0  0  0  0  0  0  0  0  0
    0.5304   21.2488    7.1695 C   0  0  0  0  0  0  0  0  0  0  0  0
    0.9996   19.9734    7.4447 C   0  0  0  0  0  0  0  0  0  0  0  0
    2.2691   19.5792    6.9856 C   0  0  0  0  0  0  0  0  0  0  0  0
    2.7915   18.2593    7.3706 C   0  0  0  0  0  0  0  0  0  0  0  0
    3.4754   17.5702    6.6349 O   0  0  0  0  0  0  0  0  0  0  0  0
    2.4003   17.8396    8.6806 N   0  0  0  0  0  0  0  0  0  0  0  0
    2.7367   16.6360    9.2430 C   0  0  0  0  0  0  0  0  0  0  0  0
    3.8797   15.8817    9.2141 C   0  0  0  0  0  0  0  0  0  0  0  0
    5.0924   16.1669    8.5764 C   0  0  0  0  0  0  0  0  0  0  0  0
    1.8936   15.9538   10.0844 N   0  3  0  0  0  0  0  0  0  0  0  0
    2.3890   14.8357   10.5949 N   0  0  0  0  0  0  0  0  0  0  0  0
    3.6337   14.7624   10.0991 C   0  0  0  0  0  0  0  0  0  0  0  0
    4.6254   13.8090   10.3649 C   0  0  0  0  0  0  0  0  0  0  0  0
    5.8517   14.0698    9.7112 C   0  0  0  0  0  0  0  0  0  0  0  0
    6.0868   15.1893    8.8570 C   0  0  0  0  0  0  0  0  0  0  0  0
    7.4761   15.3928    8.2766 C   0  0  0  0  0  0  0  0  0  0  0  0
    8.1503   16.6073    8.8667 C   0  0  0  0  0  0  0  0  0  0  0  0
    8.2724   17.7883    8.1195 C   0  0  0  0  0  0  0  0  0  0  0  0
    8.8300   18.9213    8.7029 C   0  0  0  0  0  0  0  0  0  0  0  0
    8.9084   20.0544    7.9898 F   0  0  0  0  0  0  0  0  0  0  0  0
    9.2774   18.9091   10.0152 C   0  0  0  0  0  0  0  0  0  0  0  0
    9.1494   17.7438   10.7553 C   0  0  0  0  0  0  0  0  0  0  0  0
    9.5491   17.7254   12.0331 F   0  0  0  0  0  0  0  0  0  0  0  0
    8.5902   16.5978   10.1980 C   0  0  0  0  0  0  0  0  0  0  0  0
    6.1790   21.6443    7.0301 H   0  0  0  0  0  0  0  0  0  0  0  0
    6.9437   20.2232    6.2995 H   0  0  0  0  0  0  0  0  0  0  0  0
    8.3506   22.2721    5.9758 H   0  0  0  0  0  0  0  0  0  0  0  0
    7.0245   23.0613    5.1117 H   0  0  0  0  0  0  0  0  0  0  0  0
    7.2215   20.7594    2.3351 H   0  0  0  0  0  0  0  0  0  0  0  0
    6.4559   22.2483    2.9013 H   0  0  0  0  0  0  0  0  0  0  0  0
    6.0078   19.3905    3.9207 H   0  0  0  0  0  0  0  0  0  0  0  0
    4.8249   20.4336    3.1295 H   0  0  0  0  0  0  0  0  0  0  0  0
    4.8847   21.9889    4.9783 H   0  0  0  0  0  0  0  0  0  0  0  0
    4.5905   19.1033    5.7912 H   0  0  0  0  0  0  0  0  0  0  0  0
    3.1280   22.3715    5.3683 H   0  0  0  0  0  0  0  0  0  0  0  0
    1.6950   23.5860    4.1978 H   0  0  0  0  0  0  0  0  0  0  0  0
    2.5879   24.4677    5.4655 H   0  0  0  0  0  0  0  0  0  0  0  0
   -0.1275   25.2250    4.2519 H   0  0  0  0  0  0  0  0  0  0  0  0
    1.4318   26.1034    4.0951 H   0  0  0  0  0  0  0  0  0  0  0  0
   -0.3678   28.0519    6.6481 H   0  0  0  0  0  0  0  0  0  0  0  0
   -1.2317   27.2222    5.3010 H   0  0  0  0  0  0  0  0  0  0  0  0
    0.3214   28.0902    4.9921 H   0  0  0  0  0  0  0  0  0  0  0  0
   -1.1737   25.0570    6.5258 H   0  0  0  0  0  0  0  0  0  0  0  0
   -0.4854   26.0121    7.8862 H   0  0  0  0  0  0  0  0  0  0  0  0
    1.5846   24.5449    7.8120 H   0  0  0  0  0  0  0  0  0  0  0  0
    0.1173   23.6270    8.1748 H   0  0  0  0  0  0  0  0  0  0  0  0
   -0.4560   21.5367    7.5270 H   0  0  0  0  0  0  0  0  0  0  0  0
    0.3540   19.3050    8.0059 H   0  0  0  0  0  0  0  0  0  0  0  0
    1.7810   18.4266    9.2167 H   0  0  0  0  0  0  0  0  0  0  0  0
    5.3017   17.0328    7.9720 H   0  0  0  0  0  0  0  0  0  0  0  0
    0.9328   16.1973   10.3123 H   0  0  0  0  0  0  0  0  0  0  0  0
    4.4698   12.9804   11.0273 H   0  0  0  0  0  0  0  0  0  0  0  0
    6.6717   13.3701    9.9007 H   0  0  0  0  0  0  0  0  0  0  0  0
    7.3973   15.4795    7.1859 H   0  0  0  0  0  0  0  0  0  0  0  0
    8.1061   14.5112    8.4573 H   0  0  0  0  0  0  0  0  0  0  0  0
    7.9195   17.8407    7.0936 H   0  0  0  0  0  0  0  0  0  0  0  0
    9.7115   19.7984   10.4606 H   0  0  0  0  0  0  0  0  0  0  0  0
    8.4799   15.7118   10.8194 H   0  0  0  0  0  0  0  0  0  0  0  0
    1.3961   26.5253    6.4336 H   0  0  0  0  0  0  0  0  0  0  0  0
  1  2  1  0  0  0  0
  1  6  1  0  0  0  0
  1 42  1  0  0  0  0
  1 43  1  0  0  0  0
  2  3  1  0  0  0  0
  2 44  1  0  0  0  0
  2 45  1  0  0  0  0
  3  4  1  0  0  0  0
  4  5  1  0  0  0  0
  4 46  1  0  0  0  0
  4 47  1  0  0  0  0
  5  6  1  0  0  0  0
  5 48  1  0  0  0  0
  5 49  1  0  0  0  0
  6  7  1  0  0  0  0
  6 50  1  0  0  0  0
  7  8  1  0  0  0  0
  7 51  1  0  0  0  0
  8  9  2  0  0  0  0
  8 20  1  0  0  0  0
  9 10  1  0  0  0  0
  9 52  1  0  0  0  0
 10 11  1  0  0  0  0
 10 18  2  0  0  0  0
 11 12  1  0  0  0  0
 11 17  1  0  0  0  0
 12 13  1  0  0  0  0
 12 53  1  0  0  0  0
 12 54  1  0  0  0  0
 13 14  1  0  0  0  0
 13 55  1  0  0  0  0
 13 56  1  0  0  0  0
 14 15  1  0  0  0  0
 14 16  1  0  0  0  0
 14 76  1  0  0  0  0
 15 57  1  0  0  0  0
 15 58  1  0  0  0  0
 15 59  1  0  0  0  0
 16 17  1  0  0  0  0
 16 60  1  0  0  0  0
 16 61  1  0  0  0  0
 17 62  1  0  0  0  0
 17 63  1  0  0  0  0
 18 19  1  0  0  0  0
 18 64  1  0  0  0  0
 19 20  2  0  0  0  0
 19 65  1  0  0  0  0
 20 21  1  0  0  0  0
 21 22  2  0  0  0  0
 21 23  1  0  0  0  0
 23 24  1  0  0  0  0
 23 66  1  0  0  0  0
 24 25  1  0  0  0  0
 24 27  2  0  0  0  0
 25 26  2  0  0  0  0
 25 29  1  0  0  0  0
 26 32  1  0  0  0  0
 26 67  1  0  0  0  0
 27 28  1  0  0  0  0
 27 68  1  0  0  0  0
 28 29  1  0  0  0  0
 29 30  2  0  0  0  0
 30 31  1  0  0  0  0
 30 69  1  0  0  0  0
 31 32  2  0  0  0  0
 31 70  1  0  0  0  0
 32 33  1  0  0  0  0
 33 34  1  0  0  0  0
 33 71  1  0  0  0  0
 33 72  1  0  0  0  0
 34 35  2  0  0  0  0
 34 41  1  0  0  0  0
 35 36  1  0  0  0  0
 35 73  1  0  0  0  0
 36 37  1  0  0  0  0
 36 38  2  0  0  0  0
 38 39  1  0  0  0  0
 38 74  1  0  0  0  0
 39 40  1  0  0  0  0
 39 41  2  0  0  0  0
 41 75  1  0  0  0  0
M  CHG  2  14   1  27   1
M  END
$$$$
