ZAF
 OpenBabel04161912223D

 58 59  0  0  1  0  0  0  0  0999 V2000
   43.3463   22.0014   32.9935 O   0  0  0  0  0  0  0  0  0  0  0  0
   44.9986   20.6711   33.7659 O   0  0  0  0  0  0  0  0  0  0  0  0
   44.3011   21.7315   33.7329 C   0  0  0  0  0  0  0  0  0  0  0  0
   45.8160   23.6888   33.9194 C   0  0  0  0  0  0  0  0  0  0  0  0
   45.4500   24.3225   32.6185 C   0  0  0  0  0  0  0  0  0  0  0  0
   44.9213   25.5932   32.5762 C   0  0  0  0  0  0  0  0  0  0  0  0
   44.5801   26.1505   31.3631 C   0  0  0  0  0  0  0  0  0  0  0  0
   44.8218   25.4559   30.1959 C   0  0  0  0  0  0  0  0  0  0  0  0
   45.3866   24.2010   30.2345 C   0  0  0  0  0  0  0  0  0  0  0  0
   45.6853   23.6277   31.4470 C   0  0  0  0  0  0  0  0  0  0  0  0
   44.7818   22.8436   34.6675 C   0  0  2  0  0  0  0  0  0  0  0  0
   45.3643   22.1897   35.8273 O   0  0  0  0  0  0  0  0  0  0  0  0
   44.3069   21.6634   36.9690 P   0  0  2  0  0  0  0  0  0  0  0  0
   43.2057   20.7900   36.4219 O   0  0  0  0  0  0  0  0  0  0  0  0
   43.9672   22.8433   37.8554 O   0  0  0  0  0  0  0  0  0  0  0  0
   45.3450   20.6073   38.0526 C   0  0  2  0  0  0  0  0  0  0  0  0
   46.5704   21.2494   38.6592 C   0  0  0  0  0  0  0  0  0  0  0  0
   45.8364   19.4932   37.3069 N   0  0  0  0  0  0  0  0  0  0  0  0
   45.3329   18.2602   37.4315 C   0  0  0  0  0  0  0  0  0  0  0  0
   44.3131   17.9386   38.0900 O   0  0  0  0  0  0  0  0  0  0  0  0
   46.2206   17.2369   36.8010 C   0  0  2  0  0  0  0  0  0  0  0  0
   45.5396   16.7625   35.5410 C   0  0  0  0  0  0  0  0  0  0  0  0
   46.5021   16.1410   37.6942 N   0  0  0  0  0  0  0  0  0  0  0  0
   47.2262   16.1625   38.8286 C   0  0  0  0  0  0  0  0  0  0  0  0
   47.4239   15.0938   39.4483 O   0  0  0  0  0  0  0  0  0  0  0  0
   47.7807   17.3496   39.1750 O   0  0  0  0  0  0  0  0  0  0  0  0
   48.9364   17.1732   39.9860 C   0  0  0  0  0  0  0  0  0  0  0  0
   49.7587   18.4036   40.0969 C   0  0  0  0  0  0  0  0  0  0  0  0
   50.2614   18.9959   38.9598 C   0  0  0  0  0  0  0  0  0  0  0  0
   51.0471   20.1182   39.0613 C   0  0  0  0  0  0  0  0  0  0  0  0
   51.3634   20.6214   40.3044 C   0  0  0  0  0  0  0  0  0  0  0  0
   50.8726   20.0237   41.4446 C   0  0  0  0  0  0  0  0  0  0  0  0
   50.0825   18.9035   41.3442 C   0  0  0  0  0  0  0  0  0  0  0  0
   46.1127   24.5256   34.5554 H   0  0  0  0  0  0  0  0  0  0  0  0
   46.6951   23.0826   33.6955 H   0  0  0  0  0  0  0  0  0  0  0  0
   44.7707   26.1441   33.4914 H   0  0  0  0  0  0  0  0  0  0  0  0
   44.1264   27.1158   31.3359 H   0  0  0  0  0  0  0  0  0  0  0  0
   44.5665   25.8969   29.2506 H   0  0  0  0  0  0  0  0  0  0  0  0
   45.5875   23.6588   29.3340 H   0  0  0  0  0  0  0  0  0  0  0  0
   46.0928   22.6283   31.4960 H   0  0  0  0  0  0  0  0  0  0  0  0
   43.9323   23.4783   34.9506 H   0  0  0  0  0  0  0  0  0  0  0  0
   44.6786   20.2595   38.8590 H   0  0  0  0  0  0  0  0  0  0  0  0
   47.0979   20.5163   39.2885 H   0  0  0  0  0  0  0  0  0  0  0  0
   46.3032   22.1123   39.2679 H   0  0  0  0  0  0  0  0  0  0  0  0
   47.2590   21.5708   37.8658 H   0  0  0  0  0  0  0  0  0  0  0  0
   46.5141   19.6908   36.5835 H   0  0  0  0  0  0  0  0  0  0  0  0
   47.1729   17.7115   36.5755 H   0  0  0  0  0  0  0  0  0  0  0  0
   46.1476   15.9920   35.0631 H   0  0  0  0  0  0  0  0  0  0  0  0
   45.4169   17.6048   34.8514 H   0  0  0  0  0  0  0  0  0  0  0  0
   44.5448   16.3438   35.7563 H   0  0  0  0  0  0  0  0  0  0  0  0
   46.1466   15.2391   37.4348 H   0  0  0  0  0  0  0  0  0  0  0  0
   49.5961   16.4328   39.5297 H   0  0  0  0  0  0  0  0  0  0  0  0
   48.6592   16.8987   41.0002 H   0  0  0  0  0  0  0  0  0  0  0  0
   50.0306   18.5760   37.9937 H   0  0  0  0  0  0  0  0  0  0  0  0
   51.4025   20.5982   38.1724 H   0  0  0  0  0  0  0  0  0  0  0  0
   51.9969   21.4847   40.3834 H   0  0  0  0  0  0  0  0  0  0  0  0
   51.0985   20.4322   42.4071 H   0  0  0  0  0  0  0  0  0  0  0  0
   49.7143   18.4198   42.2361 H   0  0  0  0  0  0  0  0  0  0  0  0
  1  3  2  0  0  0  0
  2  3  1  0  0  0  0
  3 11  1  0  0  0  0
  4  5  1  0  0  0  0
  4 11  1  0  0  0  0
  4 34  1  0  0  0  0
  4 35  1  0  0  0  0
  5  6  2  0  0  0  0
  5 10  1  0  0  0  0
  6  7  1  0  0  0  0
  6 36  1  0  0  0  0
  7  8  2  0  0  0  0
  7 37  1  0  0  0  0
  8  9  1  0  0  0  0
  8 38  1  0  0  0  0
  9 10  2  0  0  0  0
  9 39  1  0  0  0  0
 10 40  1  0  0  0  0
 11 12  1  0  0  0  0
 11 41  1  1  0  0  0
 13 12  1  6  0  0  0
 13 14  2  0  0  0  0
 13 15  1  0  0  0  0
 13 16  1  0  0  0  0
 16 17  1  0  0  0  0
 16 18  1  0  0  0  0
 16 42  1  1  0  0  0
 17 43  1  0  0  0  0
 17 44  1  0  0  0  0
 17 45  1  0  0  0  0
 18 19  1  0  0  0  0
 18 46  1  0  0  0  0
 19 20  2  0  0  0  0
 19 21  1  0  0  0  0
 21 22  1  0  0  0  0
 21 23  1  0  0  0  0
 21 47  1  6  0  0  0
 22 48  1  0  0  0  0
 22 49  1  0  0  0  0
 22 50  1  0  0  0  0
 23 24  1  0  0  0  0
 23 51  1  0  0  0  0
 24 25  2  0  0  0  0
 24 26  1  0  0  0  0
 26 27  1  0  0  0  0
 27 28  1  0  0  0  0
 27 52  1  0  0  0  0
 27 53  1  0  0  0  0
 28 29  2  0  0  0  0
 28 33  1  0  0  0  0
 29 30  1  0  0  0  0
 29 54  1  0  0  0  0
 30 31  2  0  0  0  0
 30 55  1  0  0  0  0
 31 32  1  0  0  0  0
 31 56  1  0  0  0  0
 32 33  2  0  0  0  0
 32 57  1  0  0  0  0
 33 58  1  0  0  0  0
M  END
$$$$
