ZZL
 OpenBabel04161910383D

 48 52  0  0  0  0  0  0  0  0999 V2000
  -89.1239  -17.0217    8.4091 C   0  0  0  0  0  0  0  0  0  0  0  0
  -88.1371  -16.5012   10.5543 C   0  0  0  0  0  0  0  0  0  0  0  0
  -89.3229  -16.1476   12.7115 C   0  0  0  0  0  0  0  0  0  0  0  0
  -88.6260  -14.3538   14.1742 C   0  0  0  0  0  0  0  0  0  0  0  0
  -87.6036  -14.0191   13.2865 C   0  0  0  0  0  0  0  0  0  0  0  0
  -87.4487  -14.7416   12.1229 C   0  0  0  0  0  0  0  0  0  0  0  0
  -86.8242  -17.1849   10.3510 C   0  0  0  0  0  0  0  0  0  0  0  0
  -84.9840  -18.3130   11.4080 C   0  0  0  0  0  0  0  0  0  0  0  0
  -84.3271  -18.3824   10.1874 C   0  0  0  0  0  0  0  0  0  0  0  0
  -78.9870  -14.1497    4.2938 O   0  0  0  0  0  0  0  0  0  0  0  0
  -79.6720  -14.0371    5.3388 C   0  0  0  0  0  0  0  0  0  0  0  0
  -79.2650  -13.6335    6.4849 O   0  0  0  0  0  0  0  0  0  0  0  0
  -81.1165  -14.4004    5.2605 C   0  0  0  0  0  0  0  0  0  0  0  0
  -81.7858  -14.2857    4.0381 C   0  0  0  0  0  0  0  0  0  0  0  0
  -83.1247  -14.5948    3.9563 C   0  0  0  0  0  0  0  0  0  0  0  0
  -83.8267  -15.0420    5.0807 C   0  0  0  0  0  0  0  0  0  0  0  0
  -85.1708  -15.3411    4.9170 N   0  0  0  0  0  0  0  0  0  0  0  0
  -86.1192  -15.7683    5.8208 C   0  0  0  0  0  0  0  0  0  0  0  0
  -87.3836  -15.6769    5.4204 N   0  0  0  0  0  0  0  0  0  0  0  0
  -88.3112  -16.0849    6.2999 C   0  0  0  0  0  0  0  0  0  0  0  0
  -88.0231  -16.5819    7.5395 C   0  0  0  0  0  0  0  0  0  0  0  0
  -89.1107  -16.4478    9.7270 N   0  0  0  0  0  0  0  0  0  0  0  0
  -88.3096  -15.7942   11.8207 C   0  0  0  0  0  0  0  0  0  0  0  0
  -90.1485  -17.1839   12.4762 F   0  0  0  0  0  0  0  0  0  0  0  0
  -89.4752  -15.4275   13.8880 C   0  0  0  0  0  0  0  0  0  0  0  0
  -86.4523  -14.4129   11.2822 F   0  0  0  0  0  0  0  0  0  0  0  0
  -86.2194  -17.7184   11.5018 C   0  0  0  0  0  0  0  0  0  0  0  0
  -84.2441  -18.9947   12.8034 Cl  0  0  0  0  0  0  0  0  0  0  0  0
  -84.9238  -17.8410    9.0593 C   0  0  0  0  0  0  0  0  0  0  0  0
  -86.1808  -17.2314    9.1059 C   0  0  0  0  0  0  0  0  0  0  0  0
  -86.6998  -16.6637    7.8656 C   0  0  0  0  0  0  0  0  0  0  0  0
  -85.7603  -16.2676    7.0061 N   0  0  0  0  0  0  0  0  0  0  0  0
  -83.1500  -15.1617    6.2955 C   0  0  0  0  0  0  0  0  0  0  0  0
  -81.8083  -14.8417    6.3927 C   0  0  0  0  0  0  0  0  0  0  0  0
  -89.1706  -18.1214    8.4006 H   0  0  0  0  0  0  0  0  0  0  0  0
  -90.0507  -16.6830    7.9063 H   0  0  0  0  0  0  0  0  0  0  0  0
  -88.7637  -13.7820   15.0827 H   0  0  0  0  0  0  0  0  0  0  0  0
  -86.9377  -13.1894   13.5007 H   0  0  0  0  0  0  0  0  0  0  0  0
  -83.3510  -18.8490   10.0928 H   0  0  0  0  0  0  0  0  0  0  0  0
  -81.2378  -13.9403    3.1575 H   0  0  0  0  0  0  0  0  0  0  0  0
  -83.6379  -14.4839    3.0060 H   0  0  0  0  0  0  0  0  0  0  0  0
  -85.5662  -15.1765    4.0054 H   0  0  0  0  0  0  0  0  0  0  0  0
  -89.3425  -15.9968    5.9778 H   0  0  0  0  0  0  0  0  0  0  0  0
  -90.2671  -15.6925   14.5821 H   0  0  0  0  0  0  0  0  0  0  0  0
  -86.7128  -17.6558   12.4712 H   0  0  0  0  0  0  0  0  0  0  0  0
  -84.3934  -17.8807    8.1019 H   0  0  0  0  0  0  0  0  0  0  0  0
  -83.6473  -15.4943    7.1993 H   0  0  0  0  0  0  0  0  0  0  0  0
  -81.2781  -14.9238    7.3446 H   0  0  0  0  0  0  0  0  0  0  0  0
  1 21  1  0  0  0  0
  1 22  1  0  0  0  0
  1 35  1  0  0  0  0
  1 36  1  0  0  0  0
  2  7  1  0  0  0  0
  2 22  2  0  0  0  0
  2 23  1  0  0  0  0
  3 23  2  0  0  0  0
  3 24  1  0  0  0  0
  3 25  1  0  0  0  0
  4  5  1  0  0  0  0
  4 25  2  0  0  0  0
  4 37  1  0  0  0  0
  5  6  2  0  0  0  0
  5 38  1  0  0  0  0
  6 23  1  0  0  0  0
  6 26  1  0  0  0  0
  7 27  2  0  0  0  0
  7 30  1  0  0  0  0
  8  9  2  0  0  0  0
  8 27  1  0  0  0  0
  8 28  1  0  0  0  0
  9 29  1  0  0  0  0
  9 39  1  0  0  0  0
 10 11  2  0  0  0  0
 11 12  1  0  0  0  0
 11 13  1  0  0  0  0
 13 14  2  0  0  0  0
 13 34  1  0  0  0  0
 14 15  1  0  0  0  0
 14 40  1  0  0  0  0
 15 16  2  0  0  0  0
 15 41  1  0  0  0  0
 16 17  1  0  0  0  0
 16 33  1  0  0  0  0
 17 18  1  0  0  0  0
 17 42  1  0  0  0  0
 18 19  2  0  0  0  0
 18 32  1  0  0  0  0
 19 20  1  0  0  0  0
 20 21  2  0  0  0  0
 20 43  1  0  0  0  0
 21 31  1  0  0  0  0
 25 44  1  0  0  0  0
 27 45  1  0  0  0  0
 29 30  2  0  0  0  0
 29 46  1  0  0  0  0
 30 31  1  0  0  0  0
 31 32  2  0  0  0  0
 33 34  2  0  0  0  0
 33 47  1  0  0  0  0
 34 48  1  0  0  0  0
M  END
$$$$
