3RKZ_06T_A_1
 OpenBabel03301717223D

 76 79  0  0  1  0  0  0  0  0999 V2000
    7.1592    9.3451   23.3310 C   0  0  0  0  0  0  0  0  0  0  0  0
    6.0085   10.2096   23.7041 C   0  0  1  0  0  0  0  0  0  0  0  0
    4.6680    9.8519   23.7935 C   0  0  1  0  0  0  0  0  0  0  0  0
    3.9420   10.9874   24.1576 N   0  3  2  0  0  0  0  0  0  0  0  0
    4.8211   12.0325   24.3044 C   0  0  2  0  0  0  0  0  0  0  0  0
    6.0971   11.5813   24.0420 C   0  0  1  0  0  0  0  0  0  0  0  0
    7.2614   12.4454   24.2163 C   0  0  0  0  0  0  0  0  0  0  0  0
    8.4052   12.0246   24.0739 O   0  0  0  0  0  0  0  0  0  0  0  0
    6.9924   13.8774   24.6732 C   0  0  0  0  0  0  0  0  0  0  0  0
    5.6952   14.0209   25.4966 C   0  0  0  0  0  0  0  0  0  0  0  0
    4.4830   13.4117   24.7595 C   0  0  0  0  0  0  0  0  0  0  0  0
    5.8822   13.3285   26.8481 C   0  0  0  0  0  0  0  0  0  0  0  0
    5.4309   15.5023   25.7599 C   0  0  0  0  0  0  0  0  0  0  0  0
    2.5519   11.0658   24.3864 C   0  0  2  0  0  0  0  0  0  0  0  0
    1.7503   11.9883   23.7273 C   0  0  0  0  0  0  0  0  0  0  0  0
    0.3699   11.9804   23.9684 C   0  0  0  0  0  0  0  0  0  0  0  0
   -0.2048   11.0783   24.8846 C   0  0  1  0  0  0  0  0  0  0  0  0
    0.6195   10.1818   25.5827 C   0  0  2  0  0  0  0  0  0  0  0  0
    1.9931   10.2048   25.3086 C   0  0  0  0  0  0  0  0  0  0  0  0
    0.1285    9.2237   26.4525 N   0  0  0  0  0  0  0  0  0  0  0  0
    0.8601    8.0265   26.8268 C   0  0  2  0  0  0  0  0  0  0  0  0
    1.2356    7.2031   25.5734 C   0  0  1  0  0  0  0  0  0  0  0  0
    2.4168    6.2756   25.8630 C   0  0  0  0  0  0  0  0  0  0  0  0
    3.4519    6.3672   24.8184 N   0  0  0  0  0  0  0  0  0  0  0  0
    4.2521    7.5955   24.7570 C   0  0  0  0  0  0  0  0  0  0  0  0
    4.0479    8.4978   23.5314 C   0  0  0  0  0  0  0  0  0  0  0  0
    3.7160    5.3665   23.9181 C   0  0  0  0  0  0  0  0  0  0  0  0
    4.5577    5.4557   23.0275 O   0  0  0  0  0  0  0  0  0  0  0  0
    2.9200    4.0647   23.9941 C   0  0  2  0  0  0  0  0  0  0  0  0
    3.5355    3.1288   25.0050 C   0  0  0  0  0  0  0  0  0  0  0  0
    3.0232    3.4121   22.6534 N   0  3  0  0  0  0  0  0  0  0  0  0
    0.0734    6.4560   24.9538 C   0  0  0  0  0  0  0  0  0  0  0  0
    0.0617    7.2969   27.8887 C   0  0  0  0  0  0  0  0  0  0  0  0
   -1.6833   11.1106   25.1876 C   0  0  0  0  0  0  0  0  0  0  0  0
   -2.1752   10.6568   26.1811 O   0  0  0  0  0  0  0  0  0  0  0  0
   -2.4532   11.7232   24.2237 N   0  0  0  0  0  0  0  0  0  0  0  0
    6.8241    8.3295   23.1066 H   0  0  0  0  0  0  0  0  0  0  0  0
    7.8814    9.2990   24.1514 H   0  0  0  0  0  0  0  0  0  0  0  0
    7.6565    9.7496   22.4432 H   0  0  0  0  0  0  0  0  0  0  0  0
    6.9543   14.5432   23.8028 H   0  0  0  0  0  0  0  0  0  0  0  0
    7.8414   14.1735   25.3010 H   0  0  0  0  0  0  0  0  0  0  0  0
    3.6139   13.4102   25.4273 H   0  0  0  0  0  0  0  0  0  0  0  0
    4.2402   14.0203   23.8787 H   0  0  0  0  0  0  0  0  0  0  0  0
    6.0775   12.2604   26.7140 H   0  0  0  0  0  0  0  0  0  0  0  0
    4.9825   13.4378   27.4621 H   0  0  0  0  0  0  0  0  0  0  0  0
    6.7290   13.7635   27.3884 H   0  0  0  0  0  0  0  0  0  0  0  0
    5.2901   16.0435   24.8177 H   0  0  0  0  0  0  0  0  0  0  0  0
    6.2761   15.9507   26.2952 H   0  0  0  0  0  0  0  0  0  0  0  0
    4.5288   15.6249   26.3698 H   0  0  0  0  0  0  0  0  0  0  0  0
    2.1776   12.6923   23.0180 H   0  0  0  0  0  0  0  0  0  0  0  0
   -0.2458   12.7034   23.4420 H   0  0  0  0  0  0  0  0  0  0  0  0
    2.6465    9.5558   25.8662 H   0  0  0  0  0  0  0  0  0  0  0  0
   -0.7775    9.4289   26.8838 H   0  0  0  0  0  0  0  0  0  0  0  0
    1.8093    8.3072   27.2913 H   0  0  0  0  0  0  0  0  0  0  0  0
    1.5647    7.9005   24.8065 H   0  0  0  0  0  0  0  0  0  0  0  0
    2.0668    5.2472   25.9414 H   0  0  0  0  0  0  0  0  0  0  0  0
    2.8936    6.5194   26.8175 H   0  0  0  0  0  0  0  0  0  0  0  0
    5.3105    7.3194   24.8057 H   0  0  0  0  0  0  0  0  0  0  0  0
    4.0214    8.1730   25.6492 H   0  0  0  0  0  0  0  0  0  0  0  0
    4.5163    8.0391   22.6501 H   0  0  0  0  0  0  0  0  0  0  0  0
    2.9852    8.6095   23.3100 H   0  0  0  0  0  0  0  0  0  0  0  0
    1.8658    4.2288   24.2219 H   0  0  0  0  0  0  0  0  0  0  0  0
    4.5802    2.9311   24.7468 H   0  0  0  0  0  0  0  0  0  0  0  0
    2.9898    2.1798   25.0351 H   0  0  0  0  0  0  0  0  0  0  0  0
    3.5075    3.5784   26.0008 H   0  0  0  0  0  0  0  0  0  0  0  0
    4.0215    3.2811   22.4250 H   0  0  0  0  0  0  0  0  0  0  0  0
    2.6478    4.0337   21.9253 H   0  0  0  0  0  0  0  0  0  0  0  0
    2.5458    2.5081   22.6211 H   0  0  0  0  0  0  0  0  0  0  0  0
   -0.3096    5.7030   25.6458 H   0  0  0  0  0  0  0  0  0  0  0  0
    0.3927    5.9544   24.0333 H   0  0  0  0  0  0  0  0  0  0  0  0
   -0.7305    7.1524   24.7022 H   0  0  0  0  0  0  0  0  0  0  0  0
   -0.9350    7.0307   27.5209 H   0  0  0  0  0  0  0  0  0  0  0  0
   -0.0681    7.9386   28.7723 H   0  0  0  0  0  0  0  0  0  0  0  0
    0.5832    6.3891   28.1975 H   0  0  0  0  0  0  0  0  0  0  0  0
   -3.4494   11.8081   24.3857 H   0  0  0  0  0  0  0  0  0  0  0  0
   -2.0622   12.0898   23.3766 H   0  0  0  0  0  0  0  0  0  0  0  0
  1 37  1  0  0  0  0
  1 38  1  0  0  0  0
  1 39  1  0  0  0  0
  2  1  1  1  0  0  0
  2  3  1  0  0  0  0
  2  6  1  0  0  0  0
  3 26  1  6  0  0  0
  4  3  1  1  0  0  0
  4  5  1  0  0  0  0
  4 14  1  0  0  0  0
  5  6  1  0  0  0  0
  5 11  1  1  0  0  0
  6  7  1  1  0  0  0
  7  8  2  0  0  0  0
  7  9  1  0  0  0  0
  9 10  1  0  0  0  0
  9 40  1  0  0  0  0
  9 41  1  0  0  0  0
 10 11  1  0  0  0  0
 10 12  1  0  0  0  0
 10 13  1  0  0  0  0
 11 42  1  0  0  0  0
 11 43  1  0  0  0  0
 12 44  1  0  0  0  0
 12 45  1  0  0  0  0
 12 46  1  0  0  0  0
 13 47  1  0  0  0  0
 13 48  1  0  0  0  0
 13 49  1  0  0  0  0
 14 15  1  1  0  0  0
 14 19  1  0  0  0  0
 15 16  1  0  0  0  0
 15 50  1  0  0  0  0
 16 17  1  0  0  0  0
 16 51  1  0  0  0  0
 17 18  1  0  0  0  0
 17 34  1  1  0  0  0
 18 19  1  6  0  0  0
 18 20  1  0  0  0  0
 19 52  1  0  0  0  0
 20 21  1  0  0  0  0
 20 53  1  0  0  0  0
 21 22  1  0  0  0  0
 21 33  1  0  0  0  0
 21 54  1  1  0  0  0
 22 23  1  0  0  0  0
 22 32  1  0  0  0  0
 22 55  1  6  0  0  0
 23 24  1  0  0  0  0
 23 56  1  0  0  0  0
 23 57  1  0  0  0  0
 24 25  1  0  0  0  0
 24 27  1  0  0  0  0
 25 26  1  0  0  0  0
 25 58  1  0  0  0  0
 25 59  1  0  0  0  0
 26 60  1  0  0  0  0
 26 61  1  0  0  0  0
 27 28  2  0  0  0  0
 27 29  1  0  0  0  0
 29 30  1  0  0  0  0
 29 31  1  0  0  0  0
 29 62  1  1  0  0  0
 30 63  1  0  0  0  0
 30 64  1  0  0  0  0
 30 65  1  0  0  0  0
 31 66  1  0  0  0  0
 31 67  1  0  0  0  0
 31 68  1  0  0  0  0
 32 69  1  0  0  0  0
 32 70  1  0  0  0  0
 32 71  1  0  0  0  0
 33 72  1  0  0  0  0
 33 73  1  0  0  0  0
 33 74  1  0  0  0  0
 34 35  2  0  0  0  0
 34 36  1  0  0  0  0
 36 75  1  0  0  0  0
 36 76  1  0  0  0  0
M  CHG  2   4   1  31   1
M  END
$$$$
