2XJG_XJG_A_1224
 OpenBabel03301717073D

 44 46  0  0  0  0  0  0  0  0999 V2000
   14.0886   -1.2087    8.9288 C   0  0  0  0  0  0  0  0  0  0  0  0
   13.8242   -1.8043   10.3117 C   0  0  0  0  0  0  0  0  0  0  0  0
   14.7055   -1.0931   11.3289 C   0  0  0  0  0  0  0  0  0  0  0  0
   14.0390   -3.3068   10.3382 C   0  0  0  0  0  0  0  0  0  0  0  0
   15.1124   -3.8554    9.6141 C   0  0  0  0  0  0  0  0  0  0  0  0
   15.3388   -5.2372    9.5921 C   0  0  0  0  0  0  0  0  0  0  0  0
   16.4949   -5.7516    8.8457 C   0  0  0  0  0  0  0  0  0  0  0  0
   17.5159   -6.0420    9.4876 O   0  0  0  0  0  0  0  0  0  0  0  0
   16.4310   -5.8463    7.4783 N   0  0  0  0  0  0  0  0  0  0  0  0
   17.5228   -6.4207    6.6722 C   0  0  0  0  0  0  0  0  0  0  0  0
   16.8645   -6.6397    5.3436 C   0  0  0  0  0  0  0  0  0  0  0  0
   17.3247   -7.3396    4.2429 C   0  0  0  0  0  0  0  0  0  0  0  0
   16.5122   -7.4374    3.1067 C   0  0  0  0  0  0  0  0  0  0  0  0
   15.2565   -6.8305    3.0910 C   0  0  0  0  0  0  0  0  0  0  0  0
   14.8086   -6.1033    4.1968 C   0  0  0  0  0  0  0  0  0  0  0  0
   15.6137   -6.0196    5.3218 C   0  0  0  0  0  0  0  0  0  0  0  0
   15.3408   -5.3477    6.6304 C   0  0  0  0  0  0  0  0  0  0  0  0
   14.5051   -6.0824   10.3369 C   0  0  0  0  0  0  0  0  0  0  0  0
   14.7022   -7.4328   10.3406 O   0  0  0  0  0  0  0  0  0  0  0  0
   13.4419   -5.5523   11.0648 C   0  0  0  0  0  0  0  0  0  0  0  0
   13.2013   -4.1736   11.0693 C   0  0  0  0  0  0  0  0  0  0  0  0
   12.1515   -3.6248   11.7653 O   0  0  0  0  0  0  0  0  0  0  0  0
   11.3373   -4.5358   12.5124 C   0  0  0  0  0  0  0  0  0  0  0  0
   13.9364   -0.1239    8.9313 H   0  0  0  0  0  0  0  0  0  0  0  0
   13.4183   -1.6570    8.1894 H   0  0  0  0  0  0  0  0  0  0  0  0
   15.1212   -1.3863    8.6075 H   0  0  0  0  0  0  0  0  0  0  0  0
   12.7792   -1.5998   10.5619 H   0  0  0  0  0  0  0  0  0  0  0  0
   15.7673   -1.2428   11.0979 H   0  0  0  0  0  0  0  0  0  0  0  0
   14.5100   -1.4765   12.3346 H   0  0  0  0  0  0  0  0  0  0  0  0
   14.5035   -0.0132   11.3248 H   0  0  0  0  0  0  0  0  0  0  0  0
   15.7834   -3.2141    9.0546 H   0  0  0  0  0  0  0  0  0  0  0  0
   17.9069   -7.3515    7.1072 H   0  0  0  0  0  0  0  0  0  0  0  0
   18.3384   -5.6926    6.5891 H   0  0  0  0  0  0  0  0  0  0  0  0
   18.2953   -7.8203    4.2442 H   0  0  0  0  0  0  0  0  0  0  0  0
   16.8580   -7.9849    2.2312 H   0  0  0  0  0  0  0  0  0  0  0  0
   14.6273   -6.9184    2.2081 H   0  0  0  0  0  0  0  0  0  0  0  0
   13.8270   -5.6493    4.1779 H   0  0  0  0  0  0  0  0  0  0  0  0
   15.4291   -4.2577    6.5568 H   0  0  0  0  0  0  0  0  0  0  0  0
   14.3678   -5.6126    7.0450 H   0  0  0  0  0  0  0  0  0  0  0  0
   14.0425   -7.8925   10.8875 H   0  0  0  0  0  0  0  0  0  0  0  0
   12.8076   -6.2248   11.6253 H   0  0  0  0  0  0  0  0  0  0  0  0
   10.5490   -3.9782   13.0116 H   0  0  0  0  0  0  0  0  0  0  0  0
   11.9348   -5.0545   13.2741 H   0  0  0  0  0  0  0  0  0  0  0  0
   10.8673   -5.2740   11.8443 H   0  0  0  0  0  0  0  0  0  0  0  0
  1  2  1  0  0  0  0
  1 24  1  0  0  0  0
  1 25  1  0  0  0  0
  1 26  1  0  0  0  0
  2  3  1  0  0  0  0
  2  4  1  0  0  0  0
  2 27  1  0  0  0  0
  3 28  1  0  0  0  0
  3 29  1  0  0  0  0
  3 30  1  0  0  0  0
  4  5  2  0  0  0  0
  4 21  1  0  0  0  0
  5  6  1  0  0  0  0
  5 31  1  0  0  0  0
  6  7  1  0  0  0  0
  6 18  2  0  0  0  0
  7  8  2  0  0  0  0
  7  9  1  0  0  0  0
  9 10  1  0  0  0  0
  9 17  1  0  0  0  0
 10 11  1  0  0  0  0
 10 32  1  0  0  0  0
 10 33  1  0  0  0  0
 11 12  2  0  0  0  0
 11 16  1  0  0  0  0
 12 13  1  0  0  0  0
 12 34  1  0  0  0  0
 13 14  2  0  0  0  0
 13 35  1  0  0  0  0
 14 15  1  0  0  0  0
 14 36  1  0  0  0  0
 15 16  2  0  0  0  0
 15 37  1  0  0  0  0
 16 17  1  0  0  0  0
 17 38  1  0  0  0  0
 17 39  1  0  0  0  0
 18 19  1  0  0  0  0
 18 20  1  0  0  0  0
 19 40  1  0  0  0  0
 20 21  2  0  0  0  0
 20 41  1  0  0  0  0
 21 22  1  0  0  0  0
 22 23  1  0  0  0  0
 23 42  1  0  0  0  0
 23 43  1  0  0  0  0
 23 44  1  0  0  0  0
M  END
$$$$
