2YE7_2GA_A_1224
 OpenBabel03301717083D

 25 26  0  0  0  0  0  0  0  0999 V2000
   31.6596   12.4755   22.2562 C   0  0  0  0  0  0  0  0  0  0  0  0
   31.9911   11.8240   23.5418 C   0  0  0  0  0  0  0  0  0  0  0  0
   31.1110   11.7316   24.5872 N   0  3  0  0  0  0  0  0  0  0  0  0
   31.6141   11.1146   25.6677 N   0  0  0  0  0  0  0  0  0  0  0  0
   32.8598   10.7831   25.3047 C   0  0  0  0  0  0  0  0  0  0  0  0
   33.7554   10.0592   26.2397 C   0  0  0  0  0  0  0  0  0  0  0  0
   33.1408   11.2211   23.9891 C   0  0  0  0  0  0  0  0  0  0  0  0
   34.6378   11.0296   23.1097 S   0  0  0  0  0  0  0  0  0  0  0  0
   35.6113   12.2329   23.9414 C   0  0  0  0  0  0  0  0  0  0  0  0
   35.0502   13.7581   24.4934 S   0  0  0  0  0  0  0  0  0  0  0  0
   36.8993   12.0366   24.1384 N   0  0  0  0  0  0  0  0  0  0  0  0
   37.5022   13.1083   24.7856 N   0  0  0  0  0  0  0  0  0  0  0  0
   36.6429   14.0705   25.0388 C   0  0  0  0  0  0  0  0  0  0  0  0
   37.0455   15.5570   25.8662 S   0  0  0  0  0  0  0  0  0  0  0  0
   38.8434   15.4755   25.9539 C   0  0  0  0  0  0  0  0  0  0  0  0
   30.6417   12.8736   22.2451 H   0  0  0  0  0  0  0  0  0  0  0  0
   31.7558   11.7576   21.4350 H   0  0  0  0  0  0  0  0  0  0  0  0
   32.3503   13.3044   22.0678 H   0  0  0  0  0  0  0  0  0  0  0  0
   30.1580   12.0746   24.6328 H   0  0  0  0  0  0  0  0  0  0  0  0
   33.2686    9.8542   27.1979 H   0  0  0  0  0  0  0  0  0  0  0  0
   34.6543   10.6513   26.4390 H   0  0  0  0  0  0  0  0  0  0  0  0
   34.0631    9.1038   25.8026 H   0  0  0  0  0  0  0  0  0  0  0  0
   39.2045   16.3776   26.4574 H   0  0  0  0  0  0  0  0  0  0  0  0
   39.2841   15.4451   24.9539 H   0  0  0  0  0  0  0  0  0  0  0  0
   39.1744   14.6082   26.5309 H   0  0  0  0  0  0  0  0  0  0  0  0
  1  2  1  0  0  0  0
  1 16  1  0  0  0  0
  1 17  1  0  0  0  0
  1 18  1  0  0  0  0
  2  3  2  0  0  0  0
  2  7  1  0  0  0  0
  3  4  1  0  0  0  0
  3 19  1  0  0  0  0
  4  5  1  0  0  0  0
  5  6  1  0  0  0  0
  5  7  2  0  0  0  0
  6 20  1  0  0  0  0
  6 21  1  0  0  0  0
  6 22  1  0  0  0  0
  7  8  1  0  0  0  0
  8  9  1  0  0  0  0
  9 10  1  0  0  0  0
  9 11  2  0  0  0  0
 10 13  1  0  0  0  0
 11 12  1  0  0  0  0
 12 13  2  0  0  0  0
 13 14  1  0  0  0  0
 14 15  1  0  0  0  0
 15 23  1  0  0  0  0
 15 24  1  0  0  0  0
 15 25  1  0  0  0  0
M  CHG  1   3   1
M  END
$$$$
