4L94_S46_A_301
 OpenBabel03301717313D

 33 34  0  0  0  0  0  0  0  0999 V2000
   -1.2761    8.1631   27.7597 C   0  0  0  0  0  0  0  0  0  0  0  0
   -1.0136    6.6551   27.7573 C   0  0  0  0  0  0  0  0  0  0  0  0
   -1.2663    6.0753   26.3834 N   0  3  0  0  0  0  0  0  0  0  0  0
   -0.3658    6.6825   25.3356 C   0  0  0  0  0  0  0  0  0  0  0  0
   -0.3106    8.2073   25.4335 C   0  0  0  0  0  0  0  0  0  0  0  0
   -1.2168    8.7854   26.4295 N   0  0  0  0  0  0  0  0  0  0  0  0
   -1.1319    4.5902   26.3866 C   0  0  0  0  0  0  0  0  0  0  0  0
   -1.8659   10.0127   26.2779 C   0  0  0  0  0  0  0  0  0  0  0  0
   -2.5911   10.4863   27.1472 O   0  0  0  0  0  0  0  0  0  0  0  0
   -1.7227   10.7433   25.0007 C   0  0  0  0  0  0  0  0  0  0  0  0
   -0.4589   11.1754   24.5672 C   0  0  0  0  0  0  0  0  0  0  0  0
   -2.8592   10.9923   24.2287 C   0  0  0  0  0  0  0  0  0  0  0  0
   -2.7245   11.6334   23.0030 C   0  0  0  0  0  0  0  0  0  0  0  0
   -1.4690   12.0338   22.5612 C   0  0  0  0  0  0  0  0  0  0  0  0
   -0.3312   11.8125   23.3354 C   0  0  0  0  0  0  0  0  0  0  0  0
   -1.3827   12.6458   21.3487 O   0  0  0  0  0  0  0  0  0  0  0  0
   -0.5481    8.6590   28.4123 H   0  0  0  0  0  0  0  0  0  0  0  0
   -2.2658    8.3471   28.1945 H   0  0  0  0  0  0  0  0  0  0  0  0
   -1.6792    6.1434   28.4626 H   0  0  0  0  0  0  0  0  0  0  0  0
    0.0262    6.4259   28.0141 H   0  0  0  0  0  0  0  0  0  0  0  0
   -2.2327    6.3356   26.1319 H   0  0  0  0  0  0  0  0  0  0  0  0
   -0.7639    6.3735   24.3619 H   0  0  0  0  0  0  0  0  0  0  0  0
    0.6359    6.2553   25.4579 H   0  0  0  0  0  0  0  0  0  0  0  0
   -0.5291    8.5977   24.4371 H   0  0  0  0  0  0  0  0  0  0  0  0
    0.7068    8.5226   25.6908 H   0  0  0  0  0  0  0  0  0  0  0  0
   -0.1016    4.3543   26.6694 H   0  0  0  0  0  0  0  0  0  0  0  0
   -1.3516    4.2303   25.3796 H   0  0  0  0  0  0  0  0  0  0  0  0
   -1.8399    4.1867   27.1110 H   0  0  0  0  0  0  0  0  0  0  0  0
    0.4220   11.0076   25.1779 H   0  0  0  0  0  0  0  0  0  0  0  0
   -3.8487   10.6912   24.5844 H   0  0  0  0  0  0  0  0  0  0  0  0
   -3.6058   11.8399   22.3873 H   0  0  0  0  0  0  0  0  0  0  0  0
    0.6509   12.1352   22.9982 H   0  0  0  0  0  0  0  0  0  0  0  0
   -0.4634   12.9197   21.1882 H   0  0  0  0  0  0  0  0  0  0  0  0
  1  2  1  0  0  0  0
  1  6  1  0  0  0  0
  1 17  1  0  0  0  0
  1 18  1  0  0  0  0
  2  3  1  0  0  0  0
  2 19  1  0  0  0  0
  2 20  1  0  0  0  0
  3  4  1  0  0  0  0
  3  7  1  0  0  0  0
  3 21  1  0  0  0  0
  4  5  1  0  0  0  0
  4 22  1  0  0  0  0
  4 23  1  0  0  0  0
  5  6  1  0  0  0  0
  5 24  1  0  0  0  0
  5 25  1  0  0  0  0
  6  8  1  0  0  0  0
  7 26  1  0  0  0  0
  7 27  1  0  0  0  0
  7 28  1  0  0  0  0
  8  9  2  0  0  0  0
  8 10  1  0  0  0  0
 10 11  2  0  0  0  0
 10 12  1  0  0  0  0
 11 15  1  0  0  0  0
 11 29  1  0  0  0  0
 12 13  2  0  0  0  0
 12 30  1  0  0  0  0
 13 14  1  0  0  0  0
 13 31  1  0  0  0  0
 14 15  2  0  0  0  0
 14 16  1  0  0  0  0
 15 32  1  0  0  0  0
 16 33  1  0  0  0  0
M  CHG  1   3   1
M  END
$$$$
