1UYK_PUX_A_1224
 OpenBabel03301716583D

 43 46  0  0  0  0  0  0  0  0999 V2000
    5.3767    7.6613   24.4935 C   0  0  0  0  0  0  0  0  0  0  0  0
    3.9787    7.1626   24.8306 C   0  0  0  0  0  0  0  0  0  0  0  0
    3.3649    7.7344   26.1150 C   0  0  0  0  0  0  0  0  0  0  0  0
    3.2122    9.2600   26.2073 C   0  0  0  0  0  0  0  0  0  0  0  0
    2.0533    9.8266   25.5351 N   0  3  0  0  0  0  0  0  0  0  0  0
    0.7876    9.9354   26.1066 C   0  0  0  0  0  0  0  0  0  0  0  0
    0.3537    9.4919   27.2992 N   0  0  0  0  0  0  0  0  0  0  0  0
   -0.9559    9.7879   27.5050 C   0  0  0  0  0  0  0  0  0  0  0  0
   -1.7975   10.4291   26.6706 N   0  0  0  0  0  0  0  0  0  0  0  0
    0.0334   10.6199   25.1624 C   0  0  0  0  0  0  0  0  0  0  0  0
   -1.3212   10.8589   25.4836 C   0  0  0  0  0  0  0  0  0  0  0  0
   -2.1977   11.5090   24.6429 N   0  0  0  0  0  0  0  0  0  0  0  0
    0.8007   10.9384   24.0617 N   0  0  0  0  0  0  0  0  0  0  0  0
    2.0271   10.4958   24.3123 C   0  0  0  0  0  0  0  0  0  0  0  0
    3.2241   10.7495   23.4069 C   0  0  0  0  0  0  0  0  0  0  0  0
    4.1233   11.8921   23.8657 C   0  0  0  0  0  0  0  0  0  0  0  0
    3.5721   13.0878   24.3641 C   0  0  0  0  0  0  0  0  0  0  0  0
    4.4256   14.0744   24.8253 C   0  0  0  0  0  0  0  0  0  0  0  0
    5.5324   11.7785   23.7796 C   0  0  0  0  0  0  0  0  0  0  0  0
    4.0531   15.2592   25.3851 O   0  0  0  0  0  0  0  0  0  0  0  0
    6.3754   12.7986   24.2496 C   0  0  0  0  0  0  0  0  0  0  0  0
    5.7907   13.9295   24.7785 C   0  0  0  0  0  0  0  0  0  0  0  0
    6.4469   14.9999   25.3051 O   0  0  0  0  0  0  0  0  0  0  0  0
    5.3370   15.8046   25.7581 C   0  0  0  0  0  0  0  0  0  0  0  0
   -1.4830    9.4089   28.6805 F   0  0  0  0  0  0  0  0  0  0  0  0
    5.7320    7.1812   23.5743 H   0  0  0  0  0  0  0  0  0  0  0  0
    6.0919    7.4340   25.2896 H   0  0  0  0  0  0  0  0  0  0  0  0
    5.3918    8.7370   24.3225 H   0  0  0  0  0  0  0  0  0  0  0  0
    4.0414    6.0718   24.9457 H   0  0  0  0  0  0  0  0  0  0  0  0
    3.3109    7.3510   23.9846 H   0  0  0  0  0  0  0  0  0  0  0  0
    3.9972    7.4108   26.9525 H   0  0  0  0  0  0  0  0  0  0  0  0
    2.3873    7.2596   26.2636 H   0  0  0  0  0  0  0  0  0  0  0  0
    4.1107    9.7735   25.8594 H   0  0  0  0  0  0  0  0  0  0  0  0
    3.1077    9.5259   27.2675 H   0  0  0  0  0  0  0  0  0  0  0  0
   -1.8492   11.9159   23.7874 H   0  0  0  0  0  0  0  0  0  0  0  0
   -3.1412   11.6693   24.9638 H   0  0  0  0  0  0  0  0  0  0  0  0
    2.8818   10.9800   22.3865 H   0  0  0  0  0  0  0  0  0  0  0  0
    3.8123    9.8330   23.3006 H   0  0  0  0  0  0  0  0  0  0  0  0
    2.4963   13.2269   24.4134 H   0  0  0  0  0  0  0  0  0  0  0  0
    5.9877   10.8835   23.3570 H   0  0  0  0  0  0  0  0  0  0  0  0
    7.4544   12.6973   24.2121 H   0  0  0  0  0  0  0  0  0  0  0  0
    5.3823   15.8837   26.8519 H   0  0  0  0  0  0  0  0  0  0  0  0
    5.4352   16.8165   25.3462 H   0  0  0  0  0  0  0  0  0  0  0  0
  1  2  1  0  0  0  0
  1 26  1  0  0  0  0
  1 27  1  0  0  0  0
  1 28  1  0  0  0  0
  2  3  1  0  0  0  0
  2 29  1  0  0  0  0
  2 30  1  0  0  0  0
  3  4  1  0  0  0  0
  3 31  1  0  0  0  0
  3 32  1  0  0  0  0
  4  5  1  0  0  0  0
  4 33  1  0  0  0  0
  4 34  1  0  0  0  0
  5  6  1  0  0  0  0
  5 14  2  0  0  0  0
  6  7  2  0  0  0  0
  6 10  1  0  0  0  0
  7  8  1  0  0  0  0
  8  9  2  0  0  0  0
  8 25  1  0  0  0  0
  9 11  1  0  0  0  0
 10 11  2  0  0  0  0
 10 13  1  0  0  0  0
 11 12  1  0  0  0  0
 12 35  1  0  0  0  0
 12 36  1  0  0  0  0
 13 14  1  0  0  0  0
 14 15  1  0  0  0  0
 15 16  1  0  0  0  0
 15 37  1  0  0  0  0
 15 38  1  0  0  0  0
 16 17  2  0  0  0  0
 16 19  1  0  0  0  0
 17 18  1  0  0  0  0
 17 39  1  0  0  0  0
 18 20  1  0  0  0  0
 18 22  2  0  0  0  0
 19 21  2  0  0  0  0
 19 40  1  0  0  0  0
 20 24  1  0  0  0  0
 21 22  1  0  0  0  0
 21 41  1  0  0  0  0
 22 23  1  0  0  0  0
 23 24  1  0  0  0  0
 24 42  1  0  0  0  0
 24 43  1  0  0  0  0
M  CHG  1   5   1
M  END
$$$$
