3K99_PFT_A_901
 OpenBabel03301717193D

 32 34  0  0  0  0  0  0  0  0999 V2000
   47.3366   72.4022   63.8798 N   0  0  0  0  0  0  0  0  0  0  0  0
   46.9016   72.3503   65.1944 C   0  0  0  0  0  0  0  0  0  0  0  0
   47.9291   73.6129   63.2935 C   0  0  0  0  0  0  0  0  0  0  0  0
   47.3706   71.2717   62.9607 C   0  0  0  0  0  0  0  0  0  0  0  0
   46.4970   71.0186   65.7279 C   0  0  0  0  0  0  0  0  0  0  0  0
   46.8409   73.3289   65.9262 O   0  0  0  0  0  0  0  0  0  0  0  0
   48.3087   73.1828   61.9013 C   0  0  0  0  0  0  0  0  0  0  0  0
   47.9786   71.8350   61.7204 C   0  0  0  0  0  0  0  0  0  0  0  0
   47.3898   70.2753   66.5061 C   0  0  0  0  0  0  0  0  0  0  0  0
   45.2240   70.4844   65.4512 C   0  0  0  0  0  0  0  0  0  0  0  0
   48.9031   73.8966   60.8693 C   0  0  0  0  0  0  0  0  0  0  0  0
   48.2187   71.1743   60.5256 C   0  0  0  0  0  0  0  0  0  0  0  0
   47.0407   69.0093   66.9851 C   0  0  0  0  0  0  0  0  0  0  0  0
   48.6361   70.7740   66.7821 O   0  0  0  0  0  0  0  0  0  0  0  0
   44.8737   69.2123   65.9246 C   0  0  0  0  0  0  0  0  0  0  0  0
   49.1497   73.2361   59.6556 C   0  0  0  0  0  0  0  0  0  0  0  0
   48.8095   71.8859   59.4849 C   0  0  0  0  0  0  0  0  0  0  0  0
   45.7908   68.4839   66.6803 C   0  0  0  0  0  0  0  0  0  0  0  0
   45.5055   67.2336   67.1461 O   0  0  0  0  0  0  0  0  0  0  0  0
   48.8056   73.9051   63.8831 H   0  0  0  0  0  0  0  0  0  0  0  0
   47.1866   74.4166   63.2937 H   0  0  0  0  0  0  0  0  0  0  0  0
   46.3488   70.9323   62.7755 H   0  0  0  0  0  0  0  0  0  0  0  0
   47.9871   70.4726   63.3792 H   0  0  0  0  0  0  0  0  0  0  0  0
   44.5054   71.0601   64.8707 H   0  0  0  0  0  0  0  0  0  0  0  0
   49.1802   74.9401   60.9813 H   0  0  0  0  0  0  0  0  0  0  0  0
   47.9576   70.1281   60.4056 H   0  0  0  0  0  0  0  0  0  0  0  0
   47.7276   68.4209   67.5815 H   0  0  0  0  0  0  0  0  0  0  0  0
   49.0938   70.1671   67.3858 H   0  0  0  0  0  0  0  0  0  0  0  0
   43.8930   68.8047   65.6954 H   0  0  0  0  0  0  0  0  0  0  0  0
   49.6161   73.7706   58.8294 H   0  0  0  0  0  0  0  0  0  0  0  0
   49.0092   71.3890   58.5371 H   0  0  0  0  0  0  0  0  0  0  0  0
   44.6040   66.9871   66.8807 H   0  0  0  0  0  0  0  0  0  0  0  0
  1  2  1  0  0  0  0
  1  3  1  0  0  0  0
  1  4  1  0  0  0  0
  2  5  1  0  0  0  0
  2  6  2  0  0  0  0
  3  7  1  0  0  0  0
  3 20  1  0  0  0  0
  3 21  1  0  0  0  0
  4  8  1  0  0  0  0
  4 22  1  0  0  0  0
  4 23  1  0  0  0  0
  5  9  2  0  0  0  0
  5 10  1  0  0  0  0
  7  8  2  0  0  0  0
  7 11  1  0  0  0  0
  8 12  1  0  0  0  0
  9 13  1  0  0  0  0
  9 14  1  0  0  0  0
 10 15  2  0  0  0  0
 10 24  1  0  0  0  0
 11 16  2  0  0  0  0
 11 25  1  0  0  0  0
 12 17  2  0  0  0  0
 12 26  1  0  0  0  0
 13 18  2  0  0  0  0
 13 27  1  0  0  0  0
 14 28  1  0  0  0  0
 15 18  1  0  0  0  0
 15 29  1  0  0  0  0
 16 17  1  0  0  0  0
 16 30  1  0  0  0  0
 17 31  1  0  0  0  0
 18 19  1  0  0  0  0
 19 32  1  0  0  0  0
M  END
$$$$
