2YEC_XQ0_A_1226
 OpenBabel03301717093D

 19 20  0  0  0  0  0  0  0  0999 V2000
   28.5115   10.7701   25.3090 O   0  0  0  0  0  0  0  0  0  0  0  0
   29.7627   10.9385   24.7824 C   0  0  0  0  0  0  0  0  0  0  0  0
   30.8382   10.4436   25.5158 C   0  0  0  0  0  0  0  0  0  0  0  0
   29.9320   11.5839   23.5562 C   0  0  0  0  0  0  0  0  0  0  0  0
   31.2510   11.7040   23.1088 C   0  0  0  0  0  0  0  0  0  0  0  0
   32.3389   11.2229   23.8148 C   0  0  0  0  0  0  0  0  0  0  0  0
   32.1445   10.5788   25.0425 C   0  0  0  0  0  0  0  0  0  0  0  0
   31.7759   12.2644   21.9789 N   0  3  0  0  0  0  0  0  0  0  0  0
   33.1330   12.1797   21.9055 N   0  0  0  0  0  0  0  0  0  0  0  0
   33.4685   11.5418   23.0301 C   0  0  0  0  0  0  0  0  0  0  0  0
   34.8765   11.2160   23.3915 C   0  0  0  0  0  0  0  0  0  0  0  0
   27.8565   11.1563   24.7043 H   0  0  0  0  0  0  0  0  0  0  0  0
   30.6771    9.9459   26.4653 H   0  0  0  0  0  0  0  0  0  0  0  0
   29.1045   11.9707   22.9810 H   0  0  0  0  0  0  0  0  0  0  0  0
   32.9924   10.1996   25.6014 H   0  0  0  0  0  0  0  0  0  0  0  0
   31.2622   12.7168   21.2278 H   0  0  0  0  0  0  0  0  0  0  0  0
   34.9263   10.6906   24.3559 H   0  0  0  0  0  0  0  0  0  0  0  0
   35.4785   12.1222   23.4954 H   0  0  0  0  0  0  0  0  0  0  0  0
   35.3336   10.5562   22.6498 H   0  0  0  0  0  0  0  0  0  0  0  0
  1  2  1  0  0  0  0
  1 12  1  0  0  0  0
  2  3  1  0  0  0  0
  2  4  2  0  0  0  0
  3  7  2  0  0  0  0
  3 13  1  0  0  0  0
  4  5  1  0  0  0  0
  4 14  1  0  0  0  0
  5  6  1  0  0  0  0
  5  8  2  0  0  0  0
  6  7  1  0  0  0  0
  6 10  2  0  0  0  0
  7 15  1  0  0  0  0
  8  9  1  0  0  0  0
  8 16  1  0  0  0  0
  9 10  1  0  0  0  0
 10 11  1  0  0  0  0
 11 17  1  0  0  0  0
 11 18  1  0  0  0  0
 11 19  1  0  0  0  0
M  CHG  1   8   1
M  END
$$$$
