1YC1_4BC_A_401
 OpenBabel03301716593D

 42 45  0  0  0  0  0  0  0  0999 V2000
    2.2670   35.5521   -4.3790 C   0  0  0  0  0  0  0  0  0  0  0  0
    2.9297   36.3083   -3.4382 C   0  0  0  0  0  0  0  0  0  0  0  0
    4.2770   36.4667   -3.3521 O   0  0  0  0  0  0  0  0  0  0  0  0
    4.3686   37.3704   -2.2370 C   0  0  0  0  0  0  0  0  0  0  0  0
    3.0968   37.6776   -1.6283 O   0  0  0  0  0  0  0  0  0  0  0  0
    2.2554   36.9916   -2.4500 C   0  0  0  0  0  0  0  0  0  0  0  0
    0.8830   36.9465   -2.3363 C   0  0  0  0  0  0  0  0  0  0  0  0
    0.1842   36.1842   -3.2769 C   0  0  0  0  0  0  0  0  0  0  0  0
    0.8690   35.4968   -4.3047 C   0  0  0  0  0  0  0  0  0  0  0  0
    0.1297   34.6669   -5.2403 C   0  0  0  0  0  0  0  0  0  0  0  0
    0.0121   34.7033   -6.6643 C   0  0  0  0  0  0  0  0  0  0  0  0
    0.6608   35.7593   -7.5429 C   0  0  0  0  0  0  0  0  0  0  0  0
    0.7082   35.5366   -8.8010 O   0  0  0  0  0  0  0  0  0  0  0  0
    1.1240   36.8023   -6.9772 O   0  0  0  0  0  0  0  0  0  0  0  0
   -0.7434   33.6709   -7.1074 N   0  0  0  0  0  0  0  0  0  0  0  0
   -0.5632   33.5333   -4.8477 C   0  0  0  0  0  0  0  0  0  0  0  0
   -1.1234   33.0442   -5.9879 N   0  3  0  0  0  0  0  0  0  0  0  0
   -0.7241   32.8935   -3.5436 C   0  0  0  0  0  0  0  0  0  0  0  0
    0.4226   32.6662   -2.7676 C   0  0  0  0  0  0  0  0  0  0  0  0
    0.3346   32.1656   -1.4642 C   0  0  0  0  0  0  0  0  0  0  0  0
    1.6044   31.8606   -0.7140 C   0  0  0  0  0  0  0  0  0  0  0  0
    1.9519   30.3845   -0.8499 C   0  0  0  0  0  0  0  0  0  0  0  0
   -0.9313   31.9148   -0.9354 C   0  0  0  0  0  0  0  0  0  0  0  0
   -1.0255   31.4917    0.3622 O   0  0  0  0  0  0  0  0  0  0  0  0
   -2.0839   32.0742   -1.7086 C   0  0  0  0  0  0  0  0  0  0  0  0
   -1.9712   32.5398   -3.0197 C   0  0  0  0  0  0  0  0  0  0  0  0
   -3.0854   32.6569   -3.8055 O   0  0  0  0  0  0  0  0  0  0  0  0
    2.8086   35.0309   -5.1606 H   0  0  0  0  0  0  0  0  0  0  0  0
    4.8348   38.3032   -2.5746 H   0  0  0  0  0  0  0  0  0  0  0  0
    5.0114   36.9156   -1.4754 H   0  0  0  0  0  0  0  0  0  0  0  0
    0.3640   37.4835   -1.5532 H   0  0  0  0  0  0  0  0  0  0  0  0
   -0.9003   36.1203   -3.2182 H   0  0  0  0  0  0  0  0  0  0  0  0
   -1.7462   32.2549   -6.0696 H   0  0  0  0  0  0  0  0  0  0  0  0
    1.4026   32.8874   -3.1893 H   0  0  0  0  0  0  0  0  0  0  0  0
    1.5024   32.1363    0.3403 H   0  0  0  0  0  0  0  0  0  0  0  0
    2.4320   32.4674   -1.1059 H   0  0  0  0  0  0  0  0  0  0  0  0
    1.1570   29.7500   -0.4467 H   0  0  0  0  0  0  0  0  0  0  0  0
    2.8767   30.1590   -0.3095 H   0  0  0  0  0  0  0  0  0  0  0  0
    2.0960   30.1075   -1.9011 H   0  0  0  0  0  0  0  0  0  0  0  0
   -1.9530   31.5519    0.6402 H   0  0  0  0  0  0  0  0  0  0  0  0
   -3.0562   31.8304   -1.2962 H   0  0  0  0  0  0  0  0  0  0  0  0
   -3.8744   32.4369   -3.2873 H   0  0  0  0  0  0  0  0  0  0  0  0
  1  2  2  0  0  0  0
  1  9  1  0  0  0  0
  1 28  1  0  0  0  0
  2  3  1  0  0  0  0
  2  6  1  0  0  0  0
  3  4  1  0  0  0  0
  4  5  1  0  0  0  0
  4 29  1  0  0  0  0
  4 30  1  0  0  0  0
  5  6  1  0  0  0  0
  6  7  2  0  0  0  0
  7  8  1  0  0  0  0
  7 31  1  0  0  0  0
  8  9  2  0  0  0  0
  8 32  1  0  0  0  0
  9 10  1  0  0  0  0
 10 11  2  0  0  0  0
 10 16  1  0  0  0  0
 11 12  1  0  0  0  0
 11 15  1  0  0  0  0
 12 13  2  0  0  0  0
 12 14  1  0  0  0  0
 15 17  1  0  0  0  0
 16 17  2  0  0  0  0
 16 18  1  0  0  0  0
 17 33  1  0  0  0  0
 18 19  2  0  0  0  0
 18 26  1  0  0  0  0
 19 20  1  0  0  0  0
 19 34  1  0  0  0  0
 20 21  1  0  0  0  0
 20 23  2  0  0  0  0
 21 22  1  0  0  0  0
 21 35  1  0  0  0  0
 21 36  1  0  0  0  0
 22 37  1  0  0  0  0
 22 38  1  0  0  0  0
 22 39  1  0  0  0  0
 23 24  1  0  0  0  0
 23 25  1  0  0  0  0
 24 40  1  0  0  0  0
 25 26  2  0  0  0  0
 25 41  1  0  0  0  0
 26 27  1  0  0  0  0
 27 42  1  0  0  0  0
M  CHG  1  17   1
M  END
$$$$
