3B25_B2K_A_1
 OpenBabel03301717143D

 31 32  0  0  0  0  0  0  0  0999 V2000
   63.7704   13.4979   25.2717 C   0  0  0  0  0  0  0  0  0  0  0  0
   63.1979   14.7196   24.8978 C   0  0  0  0  0  0  0  0  0  0  0  0
   62.1607   14.7728   23.9532 C   0  0  0  0  0  0  0  0  0  0  0  0
   61.5756   16.0952   23.5454 C   0  0  0  0  0  0  0  0  0  0  0  0
   61.6841   13.5788   23.3967 C   0  0  0  0  0  0  0  0  0  0  0  0
   62.2242   12.3479   23.8010 C   0  0  0  0  0  0  0  0  0  0  0  0
   63.2830   12.3123   24.7225 C   0  0  0  0  0  0  0  0  0  0  0  0
   64.0156   10.7547   25.2221 S   0  0  0  0  0  0  0  0  0  0  0  0
   63.2283    9.7086   24.5768 O   0  0  0  0  0  0  0  0  0  0  0  0
   64.1231   10.7648   26.6689 O   0  0  0  0  0  0  0  0  0  0  0  0
   65.6810   10.7259   24.4888 C   0  0  0  0  0  0  0  0  0  0  0  0
   66.6849   11.2530   25.2469 N   0  0  0  0  0  0  0  0  0  0  0  0
   65.8725   10.1881   23.2407 C   0  0  0  0  0  0  0  0  0  0  0  0
   67.1652   10.1833   22.7675 C   0  0  0  0  0  0  0  0  0  0  0  0
   67.4717    9.5902   21.4176 C   0  0  0  0  0  0  0  0  0  0  0  0
   68.1923   10.6966   23.4939 N   0  0  0  0  0  0  0  0  0  0  0  0
   67.9102   11.1931   24.6997 C   0  0  0  0  0  0  0  0  0  0  0  0
   68.9706   11.6893   25.4179 N   0  0  0  0  0  0  0  0  0  0  0  0
   64.5841   13.4803   25.9910 H   0  0  0  0  0  0  0  0  0  0  0  0
   63.5655   15.6391   25.3480 H   0  0  0  0  0  0  0  0  0  0  0  0
   62.0606   16.9163   24.0839 H   0  0  0  0  0  0  0  0  0  0  0  0
   60.5054   16.1303   23.7709 H   0  0  0  0  0  0  0  0  0  0  0  0
   61.7231   16.2616   22.4740 H   0  0  0  0  0  0  0  0  0  0  0  0
   60.8888   13.6044   22.6512 H   0  0  0  0  0  0  0  0  0  0  0  0
   61.8101   11.4292   23.3979 H   0  0  0  0  0  0  0  0  0  0  0  0
   65.0455    9.8037   22.6552 H   0  0  0  0  0  0  0  0  0  0  0  0
   66.5648    9.1751   20.9540 H   0  0  0  0  0  0  0  0  0  0  0  0
   68.1975    8.7727   21.4926 H   0  0  0  0  0  0  0  0  0  0  0  0
   67.8682   10.3496   20.7400 H   0  0  0  0  0  0  0  0  0  0  0  0
   69.8870   11.6183   25.0198 H   0  0  0  0  0  0  0  0  0  0  0  0
   68.8134   12.0467   26.3543 H   0  0  0  0  0  0  0  0  0  0  0  0
  1  2  2  0  0  0  0
  1  7  1  0  0  0  0
  1 19  1  0  0  0  0
  2  3  1  0  0  0  0
  2 20  1  0  0  0  0
  3  4  1  0  0  0  0
  3  5  2  0  0  0  0
  4 21  1  0  0  0  0
  4 22  1  0  0  0  0
  4 23  1  0  0  0  0
  5  6  1  0  0  0  0
  5 24  1  0  0  0  0
  6  7  2  0  0  0  0
  6 25  1  0  0  0  0
  7  8  1  0  0  0  0
  8  9  2  0  0  0  0
  8 10  2  0  0  0  0
  8 11  1  0  0  0  0
 11 12  2  0  0  0  0
 11 13  1  0  0  0  0
 12 17  1  0  0  0  0
 13 14  2  0  0  0  0
 13 26  1  0  0  0  0
 14 15  1  0  0  0  0
 14 16  1  0  0  0  0
 15 27  1  0  0  0  0
 15 28  1  0  0  0  0
 15 29  1  0  0  0  0
 16 17  2  0  0  0  0
 17 18  1  0  0  0  0
 18 30  1  0  0  0  0
 18 31  1  0  0  0  0
M  END
$$$$
