2JJC_LGA_A_1225
 OpenBabel03301717023D

 12 12  0  0  0  0  0  0  0  0999 V2000
   61.8016   33.3722   26.1145 N   0  0  0  0  0  0  0  0  0  0  0  0
   62.8298   33.8271   25.3455 C   0  0  0  0  0  0  0  0  0  0  0  0
   64.0728   33.6742   25.8164 N   0  0  0  0  0  0  0  0  0  0  0  0
   65.0725   34.1209   25.0333 C   0  0  0  0  0  0  0  0  0  0  0  0
   64.8723   34.7118   23.8098 C   0  0  0  0  0  0  0  0  0  0  0  0
   63.5589   34.8206   23.4244 C   0  0  0  0  0  0  0  0  0  0  0  0
   62.5243   34.3894   24.1714 N   0  0  0  0  0  0  0  0  0  0  0  0
   60.8669   33.5193   25.7798 H   0  0  0  0  0  0  0  0  0  0  0  0
   62.0234   32.9905   27.0166 H   0  0  0  0  0  0  0  0  0  0  0  0
   66.0715   33.9815   25.4347 H   0  0  0  0  0  0  0  0  0  0  0  0
   65.6869   35.0634   23.1969 H   0  0  0  0  0  0  0  0  0  0  0  0
   63.2863   35.2729   22.4757 H   0  0  0  0  0  0  0  0  0  0  0  0
  1  2  1  0  0  0  0
  1  8  1  0  0  0  0
  1  9  1  0  0  0  0
  2  3  2  0  0  0  0
  2  7  1  0  0  0  0
  3  4  1  0  0  0  0
  4  5  2  0  0  0  0
  4 10  1  0  0  0  0
  5  6  1  0  0  0  0
  5 11  1  0  0  0  0
  6  7  2  0  0  0  0
  6 12  1  0  0  0  0
M  END
$$$$
