3R4P_FU7_A_901
 OpenBabel03301717213D

 55 58  0  0  0  0  0  0  0  0999 V2000
   13.8016   -1.0626   51.6599 C   0  0  0  0  0  0  0  0  0  0  0  0
   17.6736   -7.7640   54.3519 F   0  0  0  0  0  0  0  0  0  0  0  0
   16.3192   -4.7726   51.4882 N   0  0  0  0  0  0  0  0  0  0  0  0
   15.2013   -6.4376   52.5850 O   0  0  0  0  0  0  0  0  0  0  0  0
   12.8128   -0.7764   49.1035 Cl  0  0  0  0  0  0  0  0  0  0  0  0
   13.5738   -1.1521   53.0690 C   0  0  0  0  0  0  0  0  0  0  0  0
   19.3663   -8.1901   53.0505 F   0  0  0  0  0  0  0  0  0  0  0  0
   17.6313   -1.7308   49.9269 N   0  0  0  0  0  0  0  0  0  0  0  0
   14.7070   -1.2518   53.8367 O   0  0  0  0  0  0  0  0  0  0  0  0
    9.5745   -1.0127   53.3519 Cl  0  0  0  0  0  0  0  0  0  0  0  0
   12.2754   -1.1361   53.5815 C   0  0  0  0  0  0  0  0  0  0  0  0
   15.7978   -0.2826   50.4557 N   0  0  0  0  0  0  0  0  0  0  0  0
   11.1813   -1.0086   52.7229 C   0  0  0  0  0  0  0  0  0  0  0  0
   17.6634    0.4911   49.2751 N   0  0  0  0  0  0  0  0  0  0  0  0
   11.3739   -0.8739   51.3510 C   0  0  0  0  0  0  0  0  0  0  0  0
   17.1960   -6.9287   51.6207 N   0  0  0  0  0  0  0  0  0  0  0  0
   12.6730   -0.8979   50.8269 C   0  0  0  0  0  0  0  0  0  0  0  0
   16.9247   -2.3870   55.2241 N   0  3  0  0  0  0  0  0  0  0  0  0
   15.7396   -2.5406   51.1557 C   0  0  0  0  0  0  0  0  0  0  0  0
   16.7956   -3.6936   55.5301 N   0  0  0  0  0  0  0  0  0  0  0  0
   15.2546   -3.8095   51.7697 C   0  0  0  0  0  0  0  0  0  0  0  0
   17.4187   -4.1426   50.7351 C   0  0  0  0  0  0  0  0  0  0  0  0
   16.9642   -2.7088   50.5747 C   0  0  0  0  0  0  0  0  0  0  0  0
   17.0120   -0.5335   49.9095 C   0  0  0  0  0  0  0  0  0  0  0  0
   15.1507   -1.3015   51.0929 C   0  0  0  0  0  0  0  0  0  0  0  0
   16.1852   -6.0593   51.9501 C   0  0  0  0  0  0  0  0  0  0  0  0
   14.6285   -1.3908   55.2590 C   0  0  0  0  0  0  0  0  0  0  0  0
   16.0476   -1.4077   55.8409 C   0  0  0  0  0  0  0  0  0  0  0  0
   17.9549   -2.1420   54.3576 C   0  0  0  0  0  0  0  0  0  0  0  0
   18.5114   -3.3623   54.0688 C   0  0  0  0  0  0  0  0  0  0  0  0
   17.7537   -4.2851   54.8103 C   0  0  0  0  0  0  0  0  0  0  0  0
   17.2126   -8.3194   52.0879 C   0  0  0  0  0  0  0  0  0  0  0  0
   18.0833   -8.5500   53.3277 C   0  0  0  0  0  0  0  0  0  0  0  0
   18.0725   -9.9952   53.7839 C   0  0  0  0  0  0  0  0  0  0  0  0
   12.0753   -1.2352   54.6515 H   0  0  0  0  0  0  0  0  0  0  0  0
   17.2236    1.3952   49.2202 H   0  0  0  0  0  0  0  0  0  0  0  0
   18.5575    0.3136   48.8535 H   0  0  0  0  0  0  0  0  0  0  0  0
   10.5154   -0.7701   50.6889 H   0  0  0  0  0  0  0  0  0  0  0  0
   18.0260   -6.5800   51.1684 H   0  0  0  0  0  0  0  0  0  0  0  0
   15.1262   -3.7220   52.8529 H   0  0  0  0  0  0  0  0  0  0  0  0
   14.3254   -4.1576   51.3052 H   0  0  0  0  0  0  0  0  0  0  0  0
   17.5398   -4.6566   49.7766 H   0  0  0  0  0  0  0  0  0  0  0  0
   18.3427   -4.2117   51.3105 H   0  0  0  0  0  0  0  0  0  0  0  0
   14.0978   -2.3087   55.5381 H   0  0  0  0  0  0  0  0  0  0  0  0
   14.1024   -0.5266   55.6871 H   0  0  0  0  0  0  0  0  0  0  0  0
   16.5203   -0.4277   55.7079 H   0  0  0  0  0  0  0  0  0  0  0  0
   16.0188   -1.6233   56.9161 H   0  0  0  0  0  0  0  0  0  0  0  0
   18.2035   -1.1465   54.0140 H   0  0  0  0  0  0  0  0  0  0  0  0
   19.3417   -3.5620   53.4074 H   0  0  0  0  0  0  0  0  0  0  0  0
   17.8695   -5.3618   54.8477 H   0  0  0  0  0  0  0  0  0  0  0  0
   17.5912   -8.9272   51.2576 H   0  0  0  0  0  0  0  0  0  0  0  0
   16.1855   -8.6375   52.3049 H   0  0  0  0  0  0  0  0  0  0  0  0
   18.7088  -10.1129   54.6672 H   0  0  0  0  0  0  0  0  0  0  0  0
   18.4581  -10.6607   53.0048 H   0  0  0  0  0  0  0  0  0  0  0  0
   17.0609  -10.3104   54.0570 H   0  0  0  0  0  0  0  0  0  0  0  0
  1  6  2  0  0  0  0
  1 17  1  0  0  0  0
  1 25  1  0  0  0  0
  2 33  1  0  0  0  0
  3 21  1  0  0  0  0
  3 22  1  0  0  0  0
  3 26  1  0  0  0  0
  4 26  2  0  0  0  0
  5 17  1  0  0  0  0
  6  9  1  0  0  0  0
  6 11  1  0  0  0  0
  7 33  1  0  0  0  0
  8 23  2  0  0  0  0
  8 24  1  0  0  0  0
  9 27  1  0  0  0  0
 10 13  1  0  0  0  0
 11 13  2  0  0  0  0
 11 35  1  0  0  0  0
 12 24  2  0  0  0  0
 12 25  1  0  0  0  0
 13 15  1  0  0  0  0
 14 24  1  0  0  0  0
 14 36  1  0  0  0  0
 14 37  1  0  0  0  0
 15 17  2  0  0  0  0
 15 38  1  0  0  0  0
 16 26  1  0  0  0  0
 16 32  1  0  0  0  0
 16 39  1  0  0  0  0
 18 20  1  0  0  0  0
 18 28  1  0  0  0  0
 18 29  2  0  0  0  0
 19 21  1  0  0  0  0
 19 23  1  0  0  0  0
 19 25  2  0  0  0  0
 20 31  1  0  0  0  0
 21 40  1  0  0  0  0
 21 41  1  0  0  0  0
 22 23  1  0  0  0  0
 22 42  1  0  0  0  0
 22 43  1  0  0  0  0
 27 28  1  0  0  0  0
 27 44  1  0  0  0  0
 27 45  1  0  0  0  0
 28 46  1  0  0  0  0
 28 47  1  0  0  0  0
 29 30  1  0  0  0  0
 29 48  1  0  0  0  0
 30 31  2  0  0  0  0
 30 49  1  0  0  0  0
 31 50  1  0  0  0  0
 32 33  1  0  0  0  0
 32 51  1  0  0  0  0
 32 52  1  0  0  0  0
 33 34  1  0  0  0  0
 34 53  1  0  0  0  0
 34 54  1  0  0  0  0
 34 55  1  0  0  0  0
M  CHG  1  18   1
M  END
$$$$
