2BZ5_AB4_A_1226
 OpenBabel03301717013D

 45 48  0  0  0  0  0  0  0  0999 V2000
   30.7445    5.1222   47.6776 Cl  0  0  0  0  0  0  0  0  0  0  0  0
   32.0289    6.0430   48.3722 C   0  0  0  0  0  0  0  0  0  0  0  0
   32.8360    6.7602   47.4766 C   0  0  0  0  0  0  0  0  0  0  0  0
   33.9132    7.5207   47.9427 C   0  0  0  0  0  0  0  0  0  0  0  0
   34.1840    7.5625   49.3061 C   0  0  0  0  0  0  0  0  0  0  0  0
   35.5281    8.4764   49.8722 Cl  0  0  0  0  0  0  0  0  0  0  0  0
   33.3823    6.8715   50.2090 C   0  0  0  0  0  0  0  0  0  0  0  0
   32.2923    6.1093   49.7431 C   0  0  0  0  0  0  0  0  0  0  0  0
   31.3849    5.1408   50.9279 S   0  0  0  0  0  0  0  0  0  0  0  0
   31.8266    5.5357   52.2455 O   0  0  0  0  0  0  0  0  0  0  0  0
   31.4895    3.7591   50.5044 O   0  0  0  0  0  0  0  0  0  0  0  0
   29.7782    5.5744   50.7699 N   0  0  0  0  0  0  0  0  0  0  0  0
   29.1440    4.8840   50.3706 H   0  0  0  0  0  0  0  0  0  0  0  0
   29.2827    6.8224   51.2026 C   0  0  0  0  0  0  0  0  0  0  0  0
   29.2076    7.8598   50.2842 C   0  0  0  0  0  0  0  0  0  0  0  0
   28.7969    6.9944   52.4984 C   0  0  0  0  0  0  0  0  0  0  0  0
   28.2898    8.2349   52.8874 C   0  0  0  0  0  0  0  0  0  0  0  0
   28.2706    9.2928   51.9787 C   0  0  0  0  0  0  0  0  0  0  0  0
   27.8014   10.4906   52.4524 O   0  0  0  0  0  0  0  0  0  0  0  0
   28.7224    9.1237   50.6601 C   0  0  0  0  0  0  0  0  0  0  0  0
   28.7383   10.2102   49.6590 C   0  0  0  0  0  0  0  0  0  0  0  0
   29.9702   10.7386   49.1642 C   0  0  0  0  0  0  0  0  0  0  0  0
   31.2441   10.2908   49.5936 C   0  0  0  0  0  0  0  0  0  0  0  0
   32.4256   10.8419   49.1012 C   0  0  0  0  0  0  0  0  0  0  0  0
   32.3738   11.8534   48.1575 C   0  0  0  0  0  0  0  0  0  0  0  0
   31.1375   12.3224   47.7157 C   0  0  0  0  0  0  0  0  0  0  0  0
   29.9362   11.7787   48.2032 C   0  0  0  0  0  0  0  0  0  0  0  0
   28.7016   12.2647   47.7456 C   0  0  0  0  0  0  0  0  0  0  0  0
   27.5000   11.7455   48.2211 C   0  0  0  0  0  0  0  0  0  0  0  0
   27.5244   10.7323   49.1692 C   0  0  0  0  0  0  0  0  0  0  0  0
   26.3441   10.2406   49.6586 O   0  0  0  0  0  0  0  0  0  0  0  0
   32.6455    6.7250   46.4052 H   0  0  0  0  0  0  0  0  0  0  0  0
   34.5333    8.0642   47.2369 H   0  0  0  0  0  0  0  0  0  0  0  0
   33.6220    6.9016   51.2699 H   0  0  0  0  0  0  0  0  0  0  0  0
   29.5420    7.7002   49.2632 H   0  0  0  0  0  0  0  0  0  0  0  0
   28.8064    6.1742   53.2105 H   0  0  0  0  0  0  0  0  0  0  0  0
   27.9078    8.3854   53.8941 H   0  0  0  0  0  0  0  0  0  0  0  0
   27.7422   11.1082   51.7034 H   0  0  0  0  0  0  0  0  0  0  0  0
   31.3369    9.5018   50.3362 H   0  0  0  0  0  0  0  0  0  0  0  0
   33.3823   10.4860   49.4688 H   0  0  0  0  0  0  0  0  0  0  0  0
   33.2949   12.2831   47.7732 H   0  0  0  0  0  0  0  0  0  0  0  0
   31.1210   13.1296   46.9870 H   0  0  0  0  0  0  0  0  0  0  0  0
   28.6684   13.0637   47.0072 H   0  0  0  0  0  0  0  0  0  0  0  0
   26.5627   12.1440   47.8462 H   0  0  0  0  0  0  0  0  0  0  0  0
   25.5961   10.6791   49.2212 H   0  0  0  0  0  0  0  0  0  0  0  0
  1  2  1  0  0  0  0
  2  3  2  0  0  0  0
  2  8  1  0  0  0  0
  3  4  1  0  0  0  0
  3 32  1  0  0  0  0
  4  5  2  0  0  0  0
  4 33  1  0  0  0  0
  5  6  1  0  0  0  0
  5  7  1  0  0  0  0
  7  8  2  0  0  0  0
  7 34  1  0  0  0  0
  8  9  1  0  0  0  0
  9 10  2  0  0  0  0
  9 11  2  0  0  0  0
  9 12  1  0  0  0  0
 12 13  1  0  0  0  0
 12 14  1  0  0  0  0
 14 15  2  0  0  0  0
 14 16  1  0  0  0  0
 15 20  1  0  0  0  0
 15 35  1  0  0  0  0
 16 17  2  0  0  0  0
 16 36  1  0  0  0  0
 17 18  1  0  0  0  0
 17 37  1  0  0  0  0
 18 19  1  0  0  0  0
 18 20  2  0  0  0  0
 19 38  1  0  0  0  0
 20 21  1  0  0  0  0
 21 22  2  0  0  0  0
 21 30  1  0  0  0  0
 22 23  1  0  0  0  0
 22 27  1  0  0  0  0
 23 24  2  0  0  0  0
 23 39  1  0  0  0  0
 24 25  1  0  0  0  0
 24 40  1  0  0  0  0
 25 26  2  0  0  0  0
 25 41  1  0  0  0  0
 26 27  1  0  0  0  0
 26 42  1  0  0  0  0
 27 28  2  0  0  0  0
 28 29  1  0  0  0  0
 28 43  1  0  0  0  0
 29 30  2  0  0  0  0
 29 44  1  0  0  0  0
 30 31  1  0  0  0  0
 31 45  1  0  0  0  0
M  END
$$$$
