017
 OpenBabel04111921113D

 75 78  0  0  1  0  0  0  0  0999 V2000
   14.2512   35.0135   18.0862 N   0  0  0  0  0  0  0  0  0  0  0  0
   15.1686   34.4641   17.2108 C   0  0  0  0  0  0  0  0  0  0  0  0
   15.0241   33.1376   16.7950 C   0  0  0  0  0  0  0  0  0  0  0  0
   15.9622   32.5474   15.9525 C   0  0  0  0  0  0  0  0  0  0  0  0
   17.0695   33.2896   15.5395 C   0  0  0  0  0  0  0  0  0  0  0  0
   17.2284   34.6186   15.9398 C   0  0  0  0  0  0  0  0  0  0  0  0
   16.2798   35.1960   16.7836 C   0  0  0  0  0  0  0  0  0  0  0  0
   18.2297   32.5679   14.4061 S   0  0  0  0  0  0  0  0  0  0  0  0
   17.5514   31.4487   13.7695 O   0  0  0  0  0  0  0  0  0  0  0  0
   18.8087   33.6290   13.6265 O   0  0  0  0  0  0  0  0  0  0  0  0
   19.4181   31.9334   15.4449 N   0  0  0  0  0  0  0  0  0  0  0  0
   20.2028   32.9145   16.2341 C   0  0  0  0  0  0  0  0  0  0  0  0
   21.6907   32.5473   16.2951 C   0  0  0  0  0  0  0  0  0  0  0  0
   22.4068   33.5334   17.2168 C   0  0  0  0  0  0  0  0  0  0  0  0
   22.3289   32.5648   14.9054 C   0  0  0  0  0  0  0  0  0  0  0  0
   19.1157   30.6638   16.1490 C   0  0  0  0  0  0  0  0  0  0  0  0
   20.0256   29.5382   15.6344 C   0  0  1  0  0  0  0  0  0  0  0  0
   19.9887   28.4216   16.5383 O   0  0  0  0  0  0  0  0  0  0  0  0
   19.7204   29.0956   14.1866 C   0  0  1  0  0  0  0  0  0  0  0  0
   20.8321   28.2695   13.7348 N   0  0  0  0  0  0  0  0  0  0  0  0
   21.7394   28.6874   12.8215 C   0  0  0  0  0  0  0  0  0  0  0  0
   21.7371   29.7591   12.2380 O   0  0  0  0  0  0  0  0  0  0  0  0
   22.6221   27.6888   12.6266 O   0  0  0  0  0  0  0  0  0  0  0  0
   23.4797   27.8204   11.4843 C   0  0  1  0  0  0  0  0  0  0  0  0
   24.8158   27.2070   11.8447 C   0  0  0  0  0  0  0  0  0  0  0  0
   24.6384   25.7920   11.6986 O   0  0  0  0  0  0  0  0  0  0  0  0
   23.6721   25.5883   10.6633 C   0  0  1  0  0  0  0  0  0  0  0  0
   22.6627   24.6594   11.0564 O   0  0  0  0  0  0  0  0  0  0  0  0
   21.4126   25.3455   11.1381 C   0  0  0  0  0  0  0  0  0  0  0  0
   21.5352   26.5961   10.2945 C   0  0  0  0  0  0  0  0  0  0  0  0
   23.0089   26.9218   10.3512 C   0  0  1  0  0  0  0  0  0  0  0  0
   18.4039   28.3078   14.0417 C   0  0  0  0  0  0  0  0  0  0  0  0
   17.8662   28.8553   11.6269 C   0  0  0  0  0  0  0  0  0  0  0  0
   17.6615   28.4719   10.3027 C   0  0  0  0  0  0  0  0  0  0  0  0
   17.7132   27.1256    9.9529 C   0  0  0  0  0  0  0  0  0  0  0  0
   17.9674   26.1627   10.9274 C   0  0  0  0  0  0  0  0  0  0  0  0
   18.1702   26.5446   12.2530 C   0  0  0  0  0  0  0  0  0  0  0  0
   18.1274   27.8962   12.6139 C   0  0  0  0  0  0  0  0  0  0  0  0
   13.4236   34.4926   18.3432 H   0  0  0  0  0  0  0  0  0  0  0  0
   14.2976   35.9911   18.3369 H   0  0  0  0  0  0  0  0  0  0  0  0
   14.1602   32.5562   17.1117 H   0  0  0  0  0  0  0  0  0  0  0  0
   15.8120   31.5250   15.6155 H   0  0  0  0  0  0  0  0  0  0  0  0
   18.0742   35.2079   15.5938 H   0  0  0  0  0  0  0  0  0  0  0  0
   16.4063   36.2299   17.0913 H   0  0  0  0  0  0  0  0  0  0  0  0
   19.7862   32.9804   17.2454 H   0  0  0  0  0  0  0  0  0  0  0  0
   20.1205   33.9140   15.7939 H   0  0  0  0  0  0  0  0  0  0  0  0
   21.8164   31.5491   16.7287 H   0  0  0  0  0  0  0  0  0  0  0  0
   23.4722   33.2956   17.2951 H   0  0  0  0  0  0  0  0  0  0  0  0
   21.9778   33.4958   18.2240 H   0  0  0  0  0  0  0  0  0  0  0  0
   22.3093   34.5589   16.8454 H   0  0  0  0  0  0  0  0  0  0  0  0
   21.8445   31.8493   14.2342 H   0  0  0  0  0  0  0  0  0  0  0  0
   23.3897   32.2992   14.9614 H   0  0  0  0  0  0  0  0  0  0  0  0
   22.2516   33.5579   14.4498 H   0  0  0  0  0  0  0  0  0  0  0  0
   18.0659   30.3727   16.0380 H   0  0  0  0  0  0  0  0  0  0  0  0
   19.2513   30.7811   17.2317 H   0  0  0  0  0  0  0  0  0  0  0  0
   21.0639   29.8839   15.6566 H   0  0  0  0  0  0  0  0  0  0  0  0
   19.0816   28.0759   16.5681 H   0  0  0  0  0  0  0  0  0  0  0  0
   19.6906   29.9839   13.5468 H   0  0  0  0  0  0  0  0  0  0  0  0
   20.9765   27.3541   14.1367 H   0  0  0  0  0  0  0  0  0  0  0  0
   23.5963   28.8648   11.1768 H   0  0  0  0  0  0  0  0  0  0  0  0
   25.1264   27.4297   12.8697 H   0  0  0  0  0  0  0  0  0  0  0  0
   25.6026   27.5178   11.1493 H   0  0  0  0  0  0  0  0  0  0  0  0
   24.1919   25.1769    9.7925 H   0  0  0  0  0  0  0  0  0  0  0  0
   21.2139   25.5752   12.1895 H   0  0  0  0  0  0  0  0  0  0  0  0
   20.6179   24.6843   10.7821 H   0  0  0  0  0  0  0  0  0  0  0  0
   20.8836   27.4046   10.6338 H   0  0  0  0  0  0  0  0  0  0  0  0
   21.2448   26.3678    9.2628 H   0  0  0  0  0  0  0  0  0  0  0  0
   23.3723   27.3192    9.3965 H   0  0  0  0  0  0  0  0  0  0  0  0
   17.5484   28.8835   14.4100 H   0  0  0  0  0  0  0  0  0  0  0  0
   18.4475   27.4031   14.6609 H   0  0  0  0  0  0  0  0  0  0  0  0
   17.8338   29.9134   11.8753 H   0  0  0  0  0  0  0  0  0  0  0  0
   17.4682   29.2294    9.5477 H   0  0  0  0  0  0  0  0  0  0  0  0
   17.5568   26.8281    8.9203 H   0  0  0  0  0  0  0  0  0  0  0  0
   18.0236   25.1132   10.6531 H   0  0  0  0  0  0  0  0  0  0  0  0
   18.3808   25.7822   12.9991 H   0  0  0  0  0  0  0  0  0  0  0  0
  1  2  1  0  0  0  0
  1 39  1  0  0  0  0
  1 40  1  0  0  0  0
  2  3  2  0  0  0  0
  2  7  1  0  0  0  0
  3  4  1  0  0  0  0
  3 41  1  0  0  0  0
  4  5  2  0  0  0  0
  4 42  1  0  0  0  0
  5  6  1  0  0  0  0
  5  8  1  0  0  0  0
  6  7  2  0  0  0  0
  6 43  1  0  0  0  0
  7 44  1  0  0  0  0
  8  9  2  0  0  0  0
  8 10  2  0  0  0  0
  8 11  1  0  0  0  0
 11 12  1  0  0  0  0
 11 16  1  0  0  0  0
 12 13  1  0  0  0  0
 12 45  1  0  0  0  0
 12 46  1  0  0  0  0
 13 14  1  0  0  0  0
 13 15  1  0  0  0  0
 13 47  1  0  0  0  0
 14 48  1  0  0  0  0
 14 49  1  0  0  0  0
 14 50  1  0  0  0  0
 15 51  1  0  0  0  0
 15 52  1  0  0  0  0
 15 53  1  0  0  0  0
 16 17  1  0  0  0  0
 16 54  1  0  0  0  0
 16 55  1  0  0  0  0
 17 18  1  0  0  0  0
 17 19  1  0  0  0  0
 17 56  1  1  0  0  0
 18 57  1  0  0  0  0
 19 20  1  0  0  0  0
 19 32  1  0  0  0  0
 19 58  1  6  0  0  0
 20 21  1  0  0  0  0
 20 59  1  0  0  0  0
 21 22  2  0  0  0  0
 21 23  1  0  0  0  0
 23 24  1  0  0  0  0
 24 25  1  0  0  0  0
 24 31  1  0  0  0  0
 24 60  1  6  0  0  0
 25 26  1  0  0  0  0
 25 61  1  0  0  0  0
 25 62  1  0  0  0  0
 26 27  1  0  0  0  0
 27 28  1  0  0  0  0
 27 31  1  0  0  0  0
 27 63  1  6  0  0  0
 28 29  1  0  0  0  0
 29 30  1  0  0  0  0
 29 64  1  0  0  0  0
 29 65  1  0  0  0  0
 30 31  1  0  0  0  0
 30 66  1  0  0  0  0
 30 67  1  0  0  0  0
 31 68  1  6  0  0  0
 32 38  1  0  0  0  0
 32 69  1  0  0  0  0
 32 70  1  0  0  0  0
 33 34  2  0  0  0  0
 33 38  1  0  0  0  0
 33 71  1  0  0  0  0
 34 35  1  0  0  0  0
 34 72  1  0  0  0  0
 35 36  2  0  0  0  0
 35 73  1  0  0  0  0
 36 37  1  0  0  0  0
 36 74  1  0  0  0  0
 37 38  2  0  0  0  0
 37 75  1  0  0  0  0
M  END
$$$$
