017
 OpenBabel04111920083D

 75 78  0  0  1  0  0  0  0  0999 V2000
   -8.7174   16.3954   18.4632 N   0  0  0  0  0  0  0  0  0  0  0  0
   -8.6569   15.8947   19.7656 C   0  0  0  0  0  0  0  0  0  0  0  0
   -9.8139   15.8361   20.5501 C   0  0  0  0  0  0  0  0  0  0  0  0
   -9.7457   15.5154   21.9060 C   0  0  0  0  0  0  0  0  0  0  0  0
   -8.4982   15.2964   22.4899 C   0  0  0  0  0  0  0  0  0  0  0  0
   -7.3311   15.3606   21.7294 C   0  0  0  0  0  0  0  0  0  0  0  0
   -7.4165   15.6803   20.3740 C   0  0  0  0  0  0  0  0  0  0  0  0
   -8.3939   14.8483   24.2032 S   0  0  0  0  0  0  0  0  0  0  0  0
   -9.6432   14.2155   24.5458 O   0  0  0  0  0  0  0  0  0  0  0  0
   -7.1295   14.1658   24.3988 O   0  0  0  0  0  0  0  0  0  0  0  0
   -8.3175   16.3559   24.9900 N   0  0  0  0  0  0  0  0  0  0  0  0
   -7.1303   17.1999   24.6854 C   0  0  0  0  0  0  0  0  0  0  0  0
   -6.6050   17.9345   25.9282 C   0  0  0  0  0  0  0  0  0  0  0  0
   -6.2054   16.9661   27.0453 C   0  0  0  0  0  0  0  0  0  0  0  0
   -5.4044   18.7982   25.5339 C   0  0  0  0  0  0  0  0  0  0  0  0
   -9.5862   17.1078   25.1540 C   0  0  0  0  0  0  0  0  0  0  0  0
  -10.0096   17.1509   26.6299 C   0  0  1  0  0  0  0  0  0  0  0  0
  -11.0443   18.1329   26.8161 O   0  0  0  0  0  0  0  0  0  0  0  0
  -10.4300   15.7847   27.2169 C   0  0  1  0  0  0  0  0  0  0  0  0
  -10.4608   15.9268   28.6671 N   0  0  0  0  0  0  0  0  0  0  0  0
   -9.6167   15.2609   29.4912 C   0  0  0  0  0  0  0  0  0  0  0  0
   -8.7579   14.4690   29.1545 O   0  0  0  0  0  0  0  0  0  0  0  0
   -9.9373   15.5843   30.7632 O   0  0  0  0  0  0  0  0  0  0  0  0
   -9.3558   14.7548   31.7772 C   0  0  1  0  0  0  0  0  0  0  0  0
   -9.1066   15.6159   33.0008 C   0  0  0  0  0  0  0  0  0  0  0  0
  -10.3133   15.6115   33.7728 O   0  0  0  0  0  0  0  0  0  0  0  0
  -11.0907   14.4807   33.3836 C   0  0  1  0  0  0  0  0  0  0  0  0
  -12.3534   14.8773   32.8585 O   0  0  0  0  0  0  0  0  0  0  0  0
  -12.6924   13.9991   31.7890 C   0  0  0  0  0  0  0  0  0  0  0  0
  -11.4393   13.2797   31.3363 C   0  0  0  0  0  0  0  0  0  0  0  0
  -10.3576   13.7289   32.2887 C   0  0  1  0  0  0  0  0  0  0  0  0
  -11.7973   15.2822   26.7041 C   0  0  0  0  0  0  0  0  0  0  0  0
  -13.3257   13.8461   28.1072 C   0  0  0  0  0  0  0  0  0  0  0  0
  -13.6861   12.6210   28.6675 C   0  0  0  0  0  0  0  0  0  0  0  0
  -12.9248   11.4822   28.4081 C   0  0  0  0  0  0  0  0  0  0  0  0
  -11.8100   11.5657   27.5797 C   0  0  0  0  0  0  0  0  0  0  0  0
  -11.4533   12.7883   27.0131 C   0  0  0  0  0  0  0  0  0  0  0  0
  -12.2021   13.9427   27.2775 C   0  0  0  0  0  0  0  0  0  0  0  0
   -9.6100   16.2833   17.9942 H   0  0  0  0  0  0  0  0  0  0  0  0
   -7.9253   16.1601   17.8734 H   0  0  0  0  0  0  0  0  0  0  0  0
  -10.7875   16.0321   20.1045 H   0  0  0  0  0  0  0  0  0  0  0  0
  -10.6592   15.4420   22.4886 H   0  0  0  0  0  0  0  0  0  0  0  0
   -6.3585   15.1716   22.1792 H   0  0  0  0  0  0  0  0  0  0  0  0
   -6.4999   15.7542   19.7950 H   0  0  0  0  0  0  0  0  0  0  0  0
   -7.4018   17.9255   23.9084 H   0  0  0  0  0  0  0  0  0  0  0  0
   -6.3181   16.5914   24.2745 H   0  0  0  0  0  0  0  0  0  0  0  0
   -7.3813   18.6051   26.3140 H   0  0  0  0  0  0  0  0  0  0  0  0
   -5.7966   17.5126   27.9016 H   0  0  0  0  0  0  0  0  0  0  0  0
   -5.4458   16.2564   26.7016 H   0  0  0  0  0  0  0  0  0  0  0  0
   -7.0643   16.3915   27.4034 H   0  0  0  0  0  0  0  0  0  0  0  0
   -5.6716   19.4918   24.7296 H   0  0  0  0  0  0  0  0  0  0  0  0
   -4.5686   18.1818   25.1859 H   0  0  0  0  0  0  0  0  0  0  0  0
   -5.0562   19.3918   26.3858 H   0  0  0  0  0  0  0  0  0  0  0  0
  -10.3916   16.6940   24.5426 H   0  0  0  0  0  0  0  0  0  0  0  0
   -9.4682   18.1358   24.7901 H   0  0  0  0  0  0  0  0  0  0  0  0
   -9.1642   17.5196   27.2209 H   0  0  0  0  0  0  0  0  0  0  0  0
  -11.8254   17.8663   26.3039 H   0  0  0  0  0  0  0  0  0  0  0  0
   -9.6576   15.0464   26.9804 H   0  0  0  0  0  0  0  0  0  0  0  0
  -11.1083   16.5699   29.1003 H   0  0  0  0  0  0  0  0  0  0  0  0
   -8.4209   14.2973   31.4370 H   0  0  0  0  0  0  0  0  0  0  0  0
   -8.8477   16.6488   32.7472 H   0  0  0  0  0  0  0  0  0  0  0  0
   -8.3173   15.1918   33.6286 H   0  0  0  0  0  0  0  0  0  0  0  0
  -11.2659   13.8539   34.2635 H   0  0  0  0  0  0  0  0  0  0  0  0
  -13.1501   14.5889   30.9898 H   0  0  0  0  0  0  0  0  0  0  0  0
  -13.4408   13.2826   32.1466 H   0  0  0  0  0  0  0  0  0  0  0  0
  -11.2218   13.4962   30.2906 H   0  0  0  0  0  0  0  0  0  0  0  0
  -11.5860   12.1956   31.3759 H   0  0  0  0  0  0  0  0  0  0  0  0
   -9.8093   12.8809   32.7152 H   0  0  0  0  0  0  0  0  0  0  0  0
  -11.8062   15.2047   25.6109 H   0  0  0  0  0  0  0  0  0  0  0  0
  -12.5755   16.0122   26.9577 H   0  0  0  0  0  0  0  0  0  0  0  0
  -13.9125   14.7294   28.3459 H   0  0  0  0  0  0  0  0  0  0  0  0
  -14.5456   12.5606   29.3293 H   0  0  0  0  0  0  0  0  0  0  0  0
  -13.1960   10.5303   28.8575 H   0  0  0  0  0  0  0  0  0  0  0  0
  -11.2072   10.6843   27.3775 H   0  0  0  0  0  0  0  0  0  0  0  0
  -10.5724   12.8309   26.3774 H   0  0  0  0  0  0  0  0  0  0  0  0
  1  2  1  0  0  0  0
  1 39  1  0  0  0  0
  1 40  1  0  0  0  0
  2  3  2  0  0  0  0
  2  7  1  0  0  0  0
  3  4  1  0  0  0  0
  3 41  1  0  0  0  0
  4  5  2  0  0  0  0
  4 42  1  0  0  0  0
  5  6  1  0  0  0  0
  5  8  1  0  0  0  0
  6  7  2  0  0  0  0
  6 43  1  0  0  0  0
  7 44  1  0  0  0  0
  8  9  2  0  0  0  0
  8 10  2  0  0  0  0
  8 11  1  0  0  0  0
 11 12  1  0  0  0  0
 11 16  1  0  0  0  0
 12 13  1  0  0  0  0
 12 45  1  0  0  0  0
 12 46  1  0  0  0  0
 13 14  1  0  0  0  0
 13 15  1  0  0  0  0
 13 47  1  0  0  0  0
 14 48  1  0  0  0  0
 14 49  1  0  0  0  0
 14 50  1  0  0  0  0
 15 51  1  0  0  0  0
 15 52  1  0  0  0  0
 15 53  1  0  0  0  0
 16 17  1  0  0  0  0
 16 54  1  0  0  0  0
 16 55  1  0  0  0  0
 17 18  1  0  0  0  0
 17 19  1  0  0  0  0
 17 56  1  1  0  0  0
 18 57  1  0  0  0  0
 19 20  1  0  0  0  0
 19 32  1  0  0  0  0
 19 58  1  6  0  0  0
 20 21  1  0  0  0  0
 20 59  1  0  0  0  0
 21 22  2  0  0  0  0
 21 23  1  0  0  0  0
 23 24  1  0  0  0  0
 24 25  1  0  0  0  0
 24 31  1  0  0  0  0
 24 60  1  6  0  0  0
 25 26  1  0  0  0  0
 25 61  1  0  0  0  0
 25 62  1  0  0  0  0
 26 27  1  0  0  0  0
 27 28  1  0  0  0  0
 27 31  1  0  0  0  0
 27 63  1  1  0  0  0
 28 29  1  0  0  0  0
 29 30  1  0  0  0  0
 29 64  1  0  0  0  0
 29 65  1  0  0  0  0
 30 31  1  0  0  0  0
 30 66  1  0  0  0  0
 30 67  1  0  0  0  0
 31 68  1  1  0  0  0
 32 38  1  0  0  0  0
 32 69  1  0  0  0  0
 32 70  1  0  0  0  0
 33 34  2  0  0  0  0
 33 38  1  0  0  0  0
 33 71  1  0  0  0  0
 34 35  1  0  0  0  0
 34 72  1  0  0  0  0
 35 36  2  0  0  0  0
 35 73  1  0  0  0  0
 36 37  1  0  0  0  0
 36 74  1  0  0  0  0
 37 38  2  0  0  0  0
 37 75  1  0  0  0  0
M  END
$$$$
