04J
 OpenBabel04111919513D

 50 52  0  0  1  0  0  0  0  0999 V2000
   19.8296  -36.8415    4.4309 C   0  0  0  0  0  0  0  0  0  0  0  0
   20.5672  -35.7682    4.0122 N   0  0  0  0  0  0  0  0  0  0  0  0
   20.2602  -37.7840    5.0956 O   0  0  0  0  0  0  0  0  0  0  0  0
   14.0342  -35.6975   -2.9947 N   0  0  0  0  0  0  0  0  0  0  0  0
   23.6319  -33.9360    4.8582 O   0  0  0  0  0  0  0  0  0  0  0  0
   12.9837  -35.2892   -3.6954 C   0  0  0  0  0  0  0  0  0  0  0  0
   21.4916  -33.6978    5.5986 O   0  0  0  0  0  0  0  0  0  0  0  0
   11.7932  -34.9971   -3.1743 N   0  0  0  0  0  0  0  0  0  0  0  0
   11.6719  -35.1494   -1.8458 C   0  0  0  0  0  0  0  0  0  0  0  0
   12.5254  -35.7428    0.3424 N   0  0  0  0  0  0  0  0  0  0  0  0
   13.6033  -36.1702    1.0435 C   0  0  0  0  0  0  0  0  0  0  0  0
   14.7912  -36.4137    0.3788 C   0  0  0  0  0  0  0  0  0  0  0  0
   14.9401  -36.2597   -0.9656 N   0  0  0  0  0  0  0  0  0  0  0  0
   13.4578  -36.2932    2.5522 C   0  0  0  0  0  0  0  0  0  0  0  0
   22.0170  -35.6645    4.3030 C   0  0  1  0  0  0  0  0  0  0  0  0
   22.7930  -35.9454    3.0020 C   0  0  0  0  0  0  0  0  0  0  0  0
   23.2929  -38.4305    2.8413 C   0  0  0  0  0  0  0  0  0  0  0  0
   23.8404  -37.0424    3.1861 C   0  0  0  0  0  0  0  0  0  0  0  0
   22.4294  -34.3101    4.9933 C   0  0  0  0  0  0  0  0  0  0  0  0
   14.3060  -37.3089    3.1584 N   0  0  0  0  0  0  0  0  0  0  0  0
   18.3948  -36.8800    4.0589 C   0  0  0  0  0  0  0  0  0  0  0  0
   17.7918  -38.1392    3.9835 C   0  0  0  0  0  0  0  0  0  0  0  0
   16.4328  -38.2630    3.6974 C   0  0  0  0  0  0  0  0  0  0  0  0
   15.6403  -37.1313    3.4846 C   0  0  0  0  0  0  0  0  0  0  0  0
   16.2616  -35.8746    3.5432 C   0  0  0  0  0  0  0  0  0  0  0  0
   17.6272  -35.7420    3.8308 C   0  0  0  0  0  0  0  0  0  0  0  0
   12.6947  -35.5857   -1.0144 C   0  0  0  0  0  0  0  0  0  0  0  0
   13.8904  -35.8405   -1.6838 C   0  0  0  0  0  0  0  0  0  0  0  0
   13.1259  -35.1859   -5.0490 N   0  0  0  0  0  0  0  0  0  0  0  0
   10.4182  -34.8963   -1.2985 N   0  0  0  0  0  0  0  0  0  0  0  0
   23.0103  -38.6122    1.6181 O   0  0  0  0  0  0  0  0  0  0  0  0
   23.2894  -39.2724    3.7842 O   0  0  0  0  0  0  0  0  0  0  0  0
   20.1601  -34.9463    3.5939 H   0  0  0  0  0  0  0  0  0  0  0  0
   15.6860  -36.7505    0.8817 H   0  0  0  0  0  0  0  0  0  0  0  0
   12.4233  -36.5713    2.7703 H   0  0  0  0  0  0  0  0  0  0  0  0
   13.6048  -35.3166    3.0220 H   0  0  0  0  0  0  0  0  0  0  0  0
   22.2469  -36.4403    5.0424 H   0  0  0  0  0  0  0  0  0  0  0  0
   23.2914  -35.0325    2.6538 H   0  0  0  0  0  0  0  0  0  0  0  0
   22.1024  -36.2221    2.1915 H   0  0  0  0  0  0  0  0  0  0  0  0
   24.2547  -37.0247    4.2011 H   0  0  0  0  0  0  0  0  0  0  0  0
   24.6810  -36.8522    2.5075 H   0  0  0  0  0  0  0  0  0  0  0  0
   13.9311  -38.2471    3.2307 H   0  0  0  0  0  0  0  0  0  0  0  0
   18.3983  -39.0325    4.1428 H   0  0  0  0  0  0  0  0  0  0  0  0
   16.0153  -39.2640    3.6268 H   0  0  0  0  0  0  0  0  0  0  0  0
   15.7042  -34.9594    3.3723 H   0  0  0  0  0  0  0  0  0  0  0  0
   18.0634  -34.7490    3.9026 H   0  0  0  0  0  0  0  0  0  0  0  0
   14.0482  -35.3323   -5.4275 H   0  0  0  0  0  0  0  0  0  0  0  0
   12.3675  -34.8022   -5.5852 H   0  0  0  0  0  0  0  0  0  0  0  0
   10.3346  -34.9530   -0.2907 H   0  0  0  0  0  0  0  0  0  0  0  0
    9.6889  -34.5463   -1.8952 H   0  0  0  0  0  0  0  0  0  0  0  0
  1  2  1  0  0  0  0
  1  3  2  0  0  0  0
  1 21  1  0  0  0  0
  2 15  1  0  0  0  0
  2 33  1  0  0  0  0
  4  6  2  0  0  0  0
  4 28  1  0  0  0  0
  5 19  2  0  0  0  0
  6  8  1  0  0  0  0
  6 29  1  0  0  0  0
  7 19  1  0  0  0  0
  8  9  2  0  0  0  0
  9 27  1  0  0  0  0
  9 30  1  0  0  0  0
 10 11  2  0  0  0  0
 10 27  1  0  0  0  0
 11 12  1  0  0  0  0
 11 14  1  0  0  0  0
 12 13  2  0  0  0  0
 12 34  1  0  0  0  0
 13 28  1  0  0  0  0
 14 20  1  0  0  0  0
 14 35  1  0  0  0  0
 14 36  1  0  0  0  0
 15 16  1  0  0  0  0
 15 19  1  0  0  0  0
 15 37  1  1  0  0  0
 16 18  1  0  0  0  0
 16 38  1  0  0  0  0
 16 39  1  0  0  0  0
 17 18  1  0  0  0  0
 17 31  2  0  0  0  0
 17 32  1  0  0  0  0
 18 40  1  0  0  0  0
 18 41  1  0  0  0  0
 20 24  1  0  0  0  0
 20 42  1  0  0  0  0
 21 22  2  0  0  0  0
 21 26  1  0  0  0  0
 22 23  1  0  0  0  0
 22 43  1  0  0  0  0
 23 24  2  0  0  0  0
 23 44  1  0  0  0  0
 24 25  1  0  0  0  0
 25 26  2  0  0  0  0
 25 45  1  0  0  0  0
 26 46  1  0  0  0  0
 27 28  2  0  0  0  0
 29 47  1  0  0  0  0
 29 48  1  0  0  0  0
 30 49  1  0  0  0  0
 30 50  1  0  0  0  0
M  END
$$$$
