0ET
 OpenBabel04111919023D

112114  0  0  1  0  0  0  0  0999 V2000
   23.0226   64.9603   39.9654 S   0  0  0  0  0  0  0  0  0  0  0  0
   21.8929   63.6006   40.3712 C   0  0  0  0  0  0  0  0  0  0  0  0
   22.7096   62.3290   40.5995 C   0  0  0  0  0  0  0  0  0  0  0  0
   23.4604   61.9872   39.4223 N   0  0  0  0  0  0  0  0  0  0  0  0
   22.9341   61.0860   38.5159 C   0  0  0  0  0  0  0  0  0  0  0  0
   21.9523   60.4634   38.7029 O   0  0  0  0  0  0  0  0  0  0  0  0
   23.7675   60.9356   37.2584 C   0  0  0  0  0  0  0  0  0  0  0  0
   23.5431   59.6038   36.6119 C   0  0  0  0  0  0  0  0  0  0  0  0
   24.5003   59.4105   35.5590 N   0  0  0  0  0  0  0  0  0  0  0  0
   24.3048   59.8441   34.2503 C   0  0  0  0  0  0  0  0  0  0  0  0
   23.2472   60.3806   33.9076 O   0  0  0  0  0  0  0  0  0  0  0  0
   23.6380   65.0240   41.6561 C   0  0  0  0  0  0  0  0  0  0  0  0
   25.5259   59.6478   33.3306 C   0  0  2  0  0  0  0  0  0  0  0  0
   26.3799   58.6135   33.8390 O   0  0  0  0  0  0  0  0  0  0  0  0
   26.3794   60.9231   33.2403 C   0  0  0  0  0  0  0  0  0  0  0  0
   27.4503   60.7677   32.1253 C   0  0  0  0  0  0  0  0  0  0  0  0
   27.0652   61.1466   34.5946 C   0  0  0  0  0  0  0  0  0  0  0  0
   25.4702   62.1019   32.8971 C   0  0  0  0  0  0  0  0  0  0  0  0
   33.5416   57.0177   37.0872 N   0  0  0  0  0  0  0  0  0  0  0  0
   29.0653   58.0015   30.0316 O   0  0  0  0  0  0  0  0  0  0  0  0
   29.6849   59.1284   29.2360 P   0  0  1  0  0  0  0  0  0  0  0  0
   22.8266   65.8936   42.5997 C   0  0  2  0  0  0  0  0  0  0  0  0
   21.4276   65.8345   42.3301 O   0  0  0  0  0  0  0  0  0  0  0  0
   33.5646   58.9331   32.2535 C   0  0  1  0  0  0  0  0  0  0  0  0
   34.5611   57.3543   36.2601 C   0  0  0  0  0  0  0  0  0  0  0  0
   29.9707   59.0256   27.7575 O   0  0  0  0  0  0  0  0  0  0  0  0
   27.3892   60.7284   29.4156 P   0  0  2  0  0  0  0  0  0  0  0  0
   23.3650   67.3010   42.5262 C   0  0  0  0  0  0  0  0  0  0  0  0
   33.4998   58.0436   31.0137 C   0  0  2  0  0  0  0  0  0  0  0  0
   34.4851   56.9964   31.1369 O   0  0  0  0  0  0  0  0  0  0  0  0
   34.4996   57.8490   35.0089 N   0  0  0  0  0  0  0  0  0  0  0  0
   28.9637   60.5099   29.6220 O   0  0  0  0  0  0  0  0  0  0  0  0
   22.4647   68.2939   43.2242 C   0  0  0  0  0  0  0  0  0  0  0  0
   33.8174   59.0451   29.9129 C   0  0  2  0  0  0  0  0  0  0  0  0
   35.2344   59.1614   29.9458 O   0  0  0  0  0  0  0  0  0  0  0  0
   36.0877   59.1122   28.5518 P   0  0  0  0  0  0  0  0  0  0  0  0
   33.2326   57.9832   34.5859 C   0  0  0  0  0  0  0  0  0  0  0  0
   26.7354   59.6474   28.5897 O   0  0  0  0  0  0  0  0  0  0  0  0
   22.2569   69.4390   42.3142 C   0  0  0  0  0  0  0  0  0  0  0  0
   33.2224   60.3600   30.4204 C   0  0  2  0  0  0  0  0  0  0  0  0
   33.1533   60.2697   31.8885 O   0  0  0  0  0  0  0  0  0  0  0  0
   32.0843   57.6755   35.3088 C   0  0  0  0  0  0  0  0  0  0  0  0
   27.1404   62.1786   29.0378 O   0  0  0  0  0  0  0  0  0  0  0  0
   21.0645   69.9461   42.0030 C   0  0  0  0  0  0  0  0  0  0  0  0
   31.8065   60.6097   29.8900 C   0  0  0  0  0  0  0  0  0  0  0  0
   31.1039   59.3863   29.9849 O   0  0  0  0  0  0  0  0  0  0  0  0
   32.2773   57.1692   36.6131 C   0  0  0  0  0  0  0  0  0  0  0  0
   31.2220   56.8297   37.4396 N   0  0  0  0  0  0  0  0  0  0  0  0
   26.7786   60.5377   30.9087 O   0  0  0  0  0  0  0  0  0  0  0  0
   21.0063   71.0528   41.0053 C   0  0  0  0  0  0  0  0  0  0  0  0
   30.9397   57.9521   34.5815 N   0  0  0  0  0  0  0  0  0  0  0  0
   35.4389   58.0160   27.7237 O   0  0  0  0  0  0  0  0  0  0  0  0
   20.4274   70.5434   39.6982 C   0  0  0  0  0  0  0  0  0  0  0  0
   31.3816   58.4139   33.4165 C   0  0  0  0  0  0  0  0  0  0  0  0
   37.4731   58.7509   29.0674 O   0  0  0  0  0  0  0  0  0  0  0  0
   21.5093   70.3027   38.6464 C   0  0  0  0  0  0  0  0  0  0  0  0
   32.7620   58.4628   33.3740 N   0  3  0  0  0  0  0  0  0  0  0  0
   35.9589   60.5213   28.0151 O   0  0  0  0  0  0  0  0  0  0  0  0
   20.8996   70.3144   37.2484 C   0  0  0  0  0  0  0  0  0  0  0  0
   21.0478   68.9701   36.5710 C   0  0  0  0  0  0  0  0  0  0  0  0
   21.1820   63.4698   39.5671 H   0  0  0  0  0  0  0  0  0  0  0  0
   21.3592   63.8693   41.2880 H   0  0  0  0  0  0  0  0  0  0  0  0
   22.0443   61.5283   40.9264 H   0  0  0  0  0  0  0  0  0  0  0  0
   23.4593   62.3999   41.3957 H   0  0  0  0  0  0  0  0  0  0  0  0
   24.2323   62.5713   39.1533 H   0  0  0  0  0  0  0  0  0  0  0  0
   24.8367   61.0573   37.5050 H   0  0  0  0  0  0  0  0  0  0  0  0
   23.5031   61.7485   36.5591 H   0  0  0  0  0  0  0  0  0  0  0  0
   22.5261   59.5212   36.2108 H   0  0  0  0  0  0  0  0  0  0  0  0
   23.6998   58.7880   37.3208 H   0  0  0  0  0  0  0  0  0  0  0  0
   25.4366   59.0718   35.7495 H   0  0  0  0  0  0  0  0  0  0  0  0
   24.6929   65.2669   41.6328 H   0  0  0  0  0  0  0  0  0  0  0  0
   23.5768   64.0285   42.0827 H   0  0  0  0  0  0  0  0  0  0  0  0
   25.1275   59.3728   32.3434 H   0  0  0  0  0  0  0  0  0  0  0  0
   25.8930   57.7807   33.8125 H   0  0  0  0  0  0  0  0  0  0  0  0
   28.0908   59.9114   32.3623 H   0  0  0  0  0  0  0  0  0  0  0  0
   28.0583   61.6731   32.0736 H   0  0  0  0  0  0  0  0  0  0  0  0
   26.3239   61.2659   35.3919 H   0  0  0  0  0  0  0  0  0  0  0  0
   27.6916   62.0369   34.5803 H   0  0  0  0  0  0  0  0  0  0  0  0
   27.6948   60.2874   34.8545 H   0  0  0  0  0  0  0  0  0  0  0  0
   24.9788   61.9299   31.9333 H   0  0  0  0  0  0  0  0  0  0  0  0
   26.0368   63.0307   32.8503 H   0  0  0  0  0  0  0  0  0  0  0  0
   24.6907   62.2329   33.6524 H   0  0  0  0  0  0  0  0  0  0  0  0
   22.9730   65.5006   43.6103 H   0  0  0  0  0  0  0  0  0  0  0  0
   20.9446   66.3983   42.9481 H   0  0  0  0  0  0  0  0  0  0  0  0
   34.6014   58.9897   32.6136 H   0  0  0  0  0  0  0  0  0  0  0  0
   35.5678   57.2144   36.6522 H   0  0  0  0  0  0  0  0  0  0  0  0
   23.4941   67.5778   41.4702 H   0  0  0  0  0  0  0  0  0  0  0  0
   24.3618   67.3240   42.9857 H   0  0  0  0  0  0  0  0  0  0  0  0
   32.5124   57.5852   30.8988 H   0  0  0  0  0  0  0  0  0  0  0  0
   35.3463   57.4774   31.0492 H   0  0  0  0  0  0  0  0  0  0  0  0
   22.9051   68.6262   44.1622 H   0  0  0  0  0  0  0  0  0  0  0  0
   21.4987   67.8835   43.5021 H   0  0  0  0  0  0  0  0  0  0  0  0
   33.4074   58.7531   28.9378 H   0  0  0  0  0  0  0  0  0  0  0  0
   23.1347   69.8375   41.8142 H   0  0  0  0  0  0  0  0  0  0  0  0
   33.8698   61.2140   30.1749 H   0  0  0  0  0  0  0  0  0  0  0  0
   20.1482   69.5424   42.4327 H   0  0  0  0  0  0  0  0  0  0  0  0
   31.8487   60.9909   28.8632 H   0  0  0  0  0  0  0  0  0  0  0  0
   31.2952   61.3421   30.5277 H   0  0  0  0  0  0  0  0  0  0  0  0
   30.2897   56.9387   37.0633 H   0  0  0  0  0  0  0  0  0  0  0  0
   31.4115   56.4685   38.3536 H   0  0  0  0  0  0  0  0  0  0  0  0
   22.0137   71.4610   40.8445 H   0  0  0  0  0  0  0  0  0  0  0  0
   20.3983   71.8678   41.4064 H   0  0  0  0  0  0  0  0  0  0  0  0
   19.7130   71.2839   39.3259 H   0  0  0  0  0  0  0  0  0  0  0  0
   19.8847   69.6048   39.8628 H   0  0  0  0  0  0  0  0  0  0  0  0
   30.7590   58.7268   32.5817 H   0  0  0  0  0  0  0  0  0  0  0  0
   22.0053   69.3444   38.8445 H   0  0  0  0  0  0  0  0  0  0  0  0
   22.2708   71.0896   38.7062 H   0  0  0  0  0  0  0  0  0  0  0  0
   21.3985   71.0776   36.6404 H   0  0  0  0  0  0  0  0  0  0  0  0
   19.8354   70.5683   37.2958 H   0  0  0  0  0  0  0  0  0  0  0  0
   20.6029   69.0014   35.5728 H   0  0  0  0  0  0  0  0  0  0  0  0
   20.5434   68.1947   37.1553 H   0  0  0  0  0  0  0  0  0  0  0  0
   22.1052   68.7067   36.4755 H   0  0  0  0  0  0  0  0  0  0  0  0
  1  2  1  0  0  0  0
  1 12  1  0  0  0  0
  2  3  1  0  0  0  0
  2 61  1  0  0  0  0
  2 62  1  0  0  0  0
  3  4  1  0  0  0  0
  3 63  1  0  0  0  0
  3 64  1  0  0  0  0
  4  5  1  0  0  0  0
  4 65  1  0  0  0  0
  5  6  2  0  0  0  0
  5  7  1  0  0  0  0
  7  8  1  0  0  0  0
  7 66  1  0  0  0  0
  7 67  1  0  0  0  0
  8  9  1  0  0  0  0
  8 68  1  0  0  0  0
  8 69  1  0  0  0  0
  9 10  1  0  0  0  0
  9 70  1  0  0  0  0
 10 11  2  0  0  0  0
 10 13  1  0  0  0  0
 12 22  1  0  0  0  0
 12 71  1  0  0  0  0
 12 72  1  0  0  0  0
 13 14  1  0  0  0  0
 13 15  1  0  0  0  0
 13 73  1  6  0  0  0
 14 74  1  0  0  0  0
 15 16  1  0  0  0  0
 15 17  1  0  0  0  0
 15 18  1  0  0  0  0
 16 49  1  0  0  0  0
 16 75  1  0  0  0  0
 16 76  1  0  0  0  0
 17 77  1  0  0  0  0
 17 78  1  0  0  0  0
 17 79  1  0  0  0  0
 18 80  1  0  0  0  0
 18 81  1  0  0  0  0
 18 82  1  0  0  0  0
 19 25  2  0  0  0  0
 19 47  1  0  0  0  0
 21 20  2  1  0  0  0
 21 26  1  0  0  0  0
 21 32  1  0  0  0  0
 21 46  1  0  0  0  0
 22 23  1  0  0  0  0
 22 28  1  0  0  0  0
 22 83  1  1  0  0  0
 23 84  1  0  0  0  0
 24 29  1  0  0  0  0
 24 41  1  0  0  0  0
 24 57  1  0  0  0  0
 24 85  1  1  0  0  0
 25 31  1  0  0  0  0
 25 86  1  0  0  0  0
 27 32  1  1  0  0  0
 27 38  2  0  0  0  0
 27 43  1  0  0  0  0
 27 49  1  0  0  0  0
 28 33  1  0  0  0  0
 28 87  1  0  0  0  0
 28 88  1  0  0  0  0
 29 30  1  0  0  0  0
 29 34  1  0  0  0  0
 29 89  1  6  0  0  0
 30 90  1  0  0  0  0
 31 37  2  0  0  0  0
 33 39  1  0  0  0  0
 33 91  1  0  0  0  0
 33 92  1  0  0  0  0
 34 35  1  0  0  0  0
 34 40  1  0  0  0  0
 34 93  1  6  0  0  0
 35 36  1  0  0  0  0
 36 52  2  0  0  0  0
 36 55  1  0  0  0  0
 36 58  1  0  0  0  0
 37 42  1  0  0  0  0
 37 57  1  0  0  0  0
 39 44  2  0  0  0  0
 39 94  1  0  0  0  0
 40 41  1  0  0  0  0
 40 45  1  0  0  0  0
 40 95  1  6  0  0  0
 42 47  2  0  0  0  0
 42 51  1  0  0  0  0
 44 50  1  0  0  0  0
 44 96  1  0  0  0  0
 45 46  1  0  0  0  0
 45 97  1  0  0  0  0
 45 98  1  0  0  0  0
 47 48  1  0  0  0  0
 48 99  1  0  0  0  0
 48100  1  0  0  0  0
 50 53  1  0  0  0  0
 50101  1  0  0  0  0
 50102  1  0  0  0  0
 51 54  1  0  0  0  0
 53 56  1  0  0  0  0
 53103  1  0  0  0  0
 53104  1  0  0  0  0
 54 57  2  0  0  0  0
 54105  1  0  0  0  0
 56 59  1  0  0  0  0
 56106  1  0  0  0  0
 56107  1  0  0  0  0
 59 60  1  0  0  0  0
 59108  1  0  0  0  0
 59109  1  0  0  0  0
 60110  1  0  0  0  0
 60111  1  0  0  0  0
 60112  1  0  0  0  0
M  CHG  1  57   1
M  END
$$$$
