0G0
 OpenBabel04111919023D

 40 42  0  0  1  0  0  0  0  0999 V2000
   34.7641   -4.4451   12.5144 C   0  0  0  0  0  0  0  0  0  0  0  0
   35.7674   -4.2928   13.3886 C   0  0  0  0  0  0  0  0  0  0  0  0
   36.5738   -3.0709   13.3968 C   0  0  0  0  0  0  0  0  0  0  0  0
   37.1030   -0.9393   12.3832 C   0  0  0  0  0  0  0  0  0  0  0  0
   36.6708    0.4430   12.7089 C   0  0  0  0  0  0  0  0  0  0  0  0
   36.7863    1.1061   13.9138 C   0  0  0  0  0  0  0  0  0  0  0  0
   36.1382   -2.0243   12.5019 N   0  0  0  0  0  0  0  0  0  0  0  0
   34.4815   -3.4509   11.6310 N   0  0  0  0  0  0  0  0  0  0  0  0
   34.8420   -1.4252   10.6882 O   0  0  0  0  0  0  0  0  0  0  0  0
   35.1505   -2.2495   11.5498 C   0  0  0  0  0  0  0  0  0  0  0  0
   34.0152   -5.5827   12.4607 O   0  0  0  0  0  0  0  0  0  0  0  0
   36.0657   -5.2880   14.2451 F   0  0  0  0  0  0  0  0  0  0  0  0
   36.3729    1.3655   11.7367 N   0  0  0  0  0  0  0  0  0  0  0  0
   36.2362    2.5554   12.3104 N   0  0  0  0  0  0  0  0  0  0  0  0
   36.4822    2.4067   13.6229 N   0  3  0  0  0  0  0  0  0  0  0  0
   36.4965    3.5210   14.5646 C   0  0  2  0  0  0  0  0  0  0  0  0
   36.2610    4.7846   13.9127 O   0  0  0  0  0  0  0  0  0  0  0  0
   37.5442    5.2333   13.4327 C   0  0  1  0  0  0  0  0  0  0  0  0
   37.5132    6.7521   13.3136 C   0  0  0  0  0  0  0  0  0  0  0  0
   38.8086    7.2727   13.0573 O   0  0  0  0  0  0  0  0  0  0  0  0
   38.5939    4.7071   14.4191 C   0  0  2  0  0  0  0  0  0  0  0  0
   39.6794    4.0935   13.7247 O   0  0  0  0  0  0  0  0  0  0  0  0
   37.8449    3.6772   15.2605 C   0  0  1  0  0  0  0  0  0  0  0  0
   37.6612    4.1771   16.5969 O   0  0  0  0  0  0  0  0  0  0  0  0
   37.6088   -3.3404   13.1357 H   0  0  0  0  0  0  0  0  0  0  0  0
   36.5359   -2.6297   14.4032 H   0  0  0  0  0  0  0  0  0  0  0  0
   37.8742   -1.1594   13.1362 H   0  0  0  0  0  0  0  0  0  0  0  0
   37.5750   -0.9916   11.4016 H   0  0  0  0  0  0  0  0  0  0  0  0
   37.1117    0.7902   14.8933 H   0  0  0  0  0  0  0  0  0  0  0  0
   33.7301   -3.5963   10.9657 H   0  0  0  0  0  0  0  0  0  0  0  0
   34.3542   -6.1782   13.1473 H   0  0  0  0  0  0  0  0  0  0  0  0
   35.6842    3.3488   15.2814 H   0  0  0  0  0  0  0  0  0  0  0  0
   37.7208    4.8175   12.4330 H   0  0  0  0  0  0  0  0  0  0  0  0
   37.1231    7.1987   14.2334 H   0  0  0  0  0  0  0  0  0  0  0  0
   36.8399    7.0380   12.4966 H   0  0  0  0  0  0  0  0  0  0  0  0
   38.7249    8.2366   12.9642 H   0  0  0  0  0  0  0  0  0  0  0  0
   38.9973    5.5093   15.0460 H   0  0  0  0  0  0  0  0  0  0  0  0
   40.3394    3.8092   14.3809 H   0  0  0  0  0  0  0  0  0  0  0  0
   38.3849    2.7317   15.3586 H   0  0  0  0  0  0  0  0  0  0  0  0
   37.1244    4.9906   16.5422 H   0  0  0  0  0  0  0  0  0  0  0  0
  1  2  2  0  0  0  0
  1  8  1  0  0  0  0
  1 11  1  0  0  0  0
  2  3  1  0  0  0  0
  2 12  1  0  0  0  0
  3  7  1  0  0  0  0
  3 25  1  0  0  0  0
  3 26  1  0  0  0  0
  4  5  1  0  0  0  0
  4  7  1  0  0  0  0
  4 27  1  0  0  0  0
  4 28  1  0  0  0  0
  5  6  2  0  0  0  0
  5 13  1  0  0  0  0
  6 15  1  0  0  0  0
  6 29  1  0  0  0  0
  7 10  1  0  0  0  0
  8 10  1  0  0  0  0
  8 30  1  0  0  0  0
  9 10  2  0  0  0  0
 11 31  1  0  0  0  0
 13 14  1  0  0  0  0
 14 15  2  0  0  0  0
 15 16  1  0  0  0  0
 16 17  1  0  0  0  0
 16 23  1  0  0  0  0
 16 32  1  1  0  0  0
 17 18  1  0  0  0  0
 18 19  1  0  0  0  0
 18 21  1  0  0  0  0
 18 33  1  6  0  0  0
 19 20  1  0  0  0  0
 19 34  1  0  0  0  0
 19 35  1  0  0  0  0
 20 36  1  0  0  0  0
 21 22  1  0  0  0  0
 21 23  1  0  0  0  0
 21 37  1  1  0  0  0
 22 38  1  0  0  0  0
 23 24  1  0  0  0  0
 23 39  1  1  0  0  0
 24 40  1  0  0  0  0
M  CHG  1  15   1
M  END
$$$$
