0H7
 OpenBabel04111918283D

 40 43  0  0  1  0  0  0  0  0999 V2000
  -10.3195  -12.7862    7.0767 O   0  0  0  0  0  0  0  0  0  0  0  0
  -10.9389  -13.9885    6.6017 C   0  0  0  0  0  0  0  0  0  0  0  0
  -10.7941  -14.0108    5.0481 C   0  0  1  0  0  0  0  0  0  0  0  0
  -11.2446  -12.6801    4.4252 C   0  0  0  0  0  0  0  0  0  0  0  0
  -10.0971  -12.1301    3.5940 N   0  3  1  0  0  0  0  0  0  0  0  0
   -8.8641  -11.9123    4.4578 C   0  0  0  0  0  0  0  0  0  0  0  0
   -8.3384  -13.2816    4.8935 C   0  0  0  0  0  0  0  0  0  0  0  0
   -9.3587  -14.3678    4.5258 C   0  0  2  0  0  0  0  0  0  0  0  0
   -9.4102  -14.4186    2.9877 C   0  0  0  0  0  0  0  0  0  0  0  0
   -9.7789  -13.0450    2.4305 C   0  0  0  0  0  0  0  0  0  0  0  0
  -10.3340  -15.2324    7.2112 C   0  0  0  0  0  0  0  0  0  0  0  0
  -10.5831  -16.5103    6.7347 C   0  0  0  0  0  0  0  0  0  0  0  0
   -9.9445  -17.5233    7.4857 C   0  0  0  0  0  0  0  0  0  0  0  0
   -9.2627  -16.9902    8.5432 C   0  0  0  0  0  0  0  0  0  0  0  0
   -8.4147  -17.8939    9.7273 Cl  0  0  0  0  0  0  0  0  0  0  0  0
   -9.3412  -15.2942    8.6126 S   0  0  0  0  0  0  0  0  0  0  0  0
  -12.3611  -13.8816    7.1001 C   0  0  0  0  0  0  0  0  0  0  0  0
  -12.7189  -13.3538    8.3408 C   0  0  0  0  0  0  0  0  0  0  0  0
  -14.1172  -13.4659    8.5990 C   0  0  0  0  0  0  0  0  0  0  0  0
  -14.7637  -14.0700    7.5753 C   0  0  0  0  0  0  0  0  0  0  0  0
  -16.4469  -14.4093    7.4823 Cl  0  0  0  0  0  0  0  0  0  0  0  0
  -13.7434  -14.5188    6.2990 S   0  0  0  0  0  0  0  0  0  0  0  0
   -9.3746  -12.9289    7.2148 H   0  0  0  0  0  0  0  0  0  0  0  0
  -11.4570  -14.7923    4.6520 H   0  0  0  0  0  0  0  0  0  0  0  0
  -11.5249  -11.9050    5.1452 H   0  0  0  0  0  0  0  0  0  0  0  0
  -12.0908  -12.8253    3.7423 H   0  0  0  0  0  0  0  0  0  0  0  0
   -9.1632  -11.2779    5.2998 H   0  0  0  0  0  0  0  0  0  0  0  0
   -8.1319  -11.3714    3.8518 H   0  0  0  0  0  0  0  0  0  0  0  0
   -8.0909  -13.3020    5.9602 H   0  0  0  0  0  0  0  0  0  0  0  0
   -7.3786  -13.4863    4.4098 H   0  0  0  0  0  0  0  0  0  0  0  0
   -9.0193  -15.3414    4.8873 H   0  0  0  0  0  0  0  0  0  0  0  0
  -10.1326  -15.1717    2.6529 H   0  0  0  0  0  0  0  0  0  0  0  0
   -8.4358  -14.7315    2.5899 H   0  0  0  0  0  0  0  0  0  0  0  0
   -8.9471  -12.5910    1.8832 H   0  0  0  0  0  0  0  0  0  0  0  0
  -10.6606  -13.0846    1.7838 H   0  0  0  0  0  0  0  0  0  0  0  0
  -11.2059  -16.7040    5.8711 H   0  0  0  0  0  0  0  0  0  0  0  0
  -10.0160  -18.5762    7.2581 H   0  0  0  0  0  0  0  0  0  0  0  0
  -12.0064  -12.9655    9.0414 H   0  0  0  0  0  0  0  0  0  0  0  0
  -14.6110  -13.1396    9.5227 H   0  0  0  0  0  0  0  0  0  0  0  0
  -10.3944  -11.2176    3.2219 H   0  0  0  0  0  0  0  0  0  0  0  0
  1  2  1  0  0  0  0
  1 23  1  0  0  0  0
  2  3  1  0  0  0  0
  2 11  1  0  0  0  0
  2 17  1  0  0  0  0
  3  4  1  0  0  0  0
  3  8  1  0  0  0  0
  3 24  1  6  0  0  0
  4  5  1  0  0  0  0
  4 25  1  0  0  0  0
  4 26  1  0  0  0  0
  5  6  1  0  0  0  0
  5 10  1  0  0  0  0
  5 40  1  6  0  0  0
  6  7  1  0  0  0  0
  6 27  1  0  0  0  0
  6 28  1  0  0  0  0
  7  8  1  0  0  0  0
  7 29  1  0  0  0  0
  7 30  1  0  0  0  0
  8  9  1  0  0  0  0
  8 31  1  1  0  0  0
  9 10  1  0  0  0  0
  9 32  1  0  0  0  0
  9 33  1  0  0  0  0
 10 34  1  0  0  0  0
 10 35  1  0  0  0  0
 11 12  2  0  0  0  0
 11 16  1  0  0  0  0
 12 13  1  0  0  0  0
 12 36  1  0  0  0  0
 13 14  2  0  0  0  0
 13 37  1  0  0  0  0
 14 15  1  0  0  0  0
 14 16  1  0  0  0  0
 17 18  2  0  0  0  0
 17 22  1  0  0  0  0
 18 19  1  0  0  0  0
 18 38  1  0  0  0  0
 19 20  2  0  0  0  0
 19 39  1  0  0  0  0
 20 21  1  0  0  0  0
 20 22  1  0  0  0  0
M  CHG  1   5   1
M  END
$$$$
