0J0
 OpenBabel04111918293D

 55 59  0  0  1  0  0  0  0  0999 V2000
  -25.1995   22.1179   -9.3985 C   0  0  0  0  0  0  0  0  0  0  0  0
  -25.4672   22.3952   -6.8897 C   0  0  1  0  0  0  0  0  0  0  0  0
  -25.9168   24.7098   -5.8623 C   0  0  2  0  0  0  0  0  0  0  0  0
  -26.6270   22.8676   -4.6240 C   0  0  1  0  0  0  0  0  0  0  0  0
  -26.3916   21.8513   -5.7587 C   0  0  0  0  0  0  0  0  0  0  0  0
  -27.6038   25.0975   -4.0669 C   0  0  0  0  0  0  0  0  0  0  0  0
  -21.8261   24.5379  -13.0658 C   0  0  0  0  0  0  0  0  0  0  0  0
  -21.7399   25.6816  -13.4810 O   0  0  0  0  0  0  0  0  0  0  0  0
  -20.7357   23.7284  -12.7199 N   0  3  0  0  0  0  0  0  0  0  0  0
  -19.3978   24.3006  -12.8783 C   0  0  0  0  0  0  0  0  0  0  0  0
  -23.1649   23.9085  -12.8772 C   0  0  0  0  0  0  0  0  0  0  0  0
  -23.3858   22.6805  -12.4019 C   0  0  0  0  0  0  0  0  0  0  0  0
  -22.1995   21.8346  -12.0427 C   0  0  0  0  0  0  0  0  0  0  0  0
  -22.2516   20.5170  -11.5322 C   0  0  0  0  0  0  0  0  0  0  0  0
  -21.1279   19.7459  -11.2276 C   0  0  0  0  0  0  0  0  0  0  0  0
  -19.8781   20.2923  -11.3976 C   0  0  0  0  0  0  0  0  0  0  0  0
  -19.7653   21.6020  -11.8790 C   0  0  0  0  0  0  0  0  0  0  0  0
  -20.8994   22.3881  -12.2201 C   0  0  0  0  0  0  0  0  0  0  0  0
  -24.7262   22.2886  -12.2850 O   0  0  0  0  0  0  0  0  0  0  0  0
  -25.2559   21.0553  -11.7612 C   0  0  0  0  0  0  0  0  0  0  0  0
  -25.4453   21.0758  -10.2689 C   0  0  0  0  0  0  0  0  0  0  0  0
  -25.9153   20.0186   -9.5200 N   0  0  0  0  0  0  0  0  0  0  0  0
  -25.9928   20.3975   -8.2363 N   0  0  0  0  0  0  0  0  0  0  0  0
  -25.5560   21.6638   -8.1630 N   0  3  0  0  0  0  0  0  0  0  0  0
  -25.3038   23.3491   -4.0778 C   0  0  0  0  0  0  0  0  0  0  0  0
  -24.8757   24.3887   -4.8201 C   0  0  0  0  0  0  0  0  0  0  0  0
  -27.1800   24.1599   -5.2114 N   0  3  0  0  0  0  0  0  0  0  0  0
  -28.3817   24.0054   -6.0964 C   0  0  0  0  0  0  0  0  0  0  0  0
  -25.6180   23.9268   -7.1358 C   0  0  0  0  0  0  0  0  0  0  0  0
  -24.8167   23.1051   -9.5812 H   0  0  0  0  0  0  0  0  0  0  0  0
  -24.4336   22.2269   -6.5531 H   0  0  0  0  0  0  0  0  0  0  0  0
  -26.0709   25.7781   -6.0518 H   0  0  0  0  0  0  0  0  0  0  0  0
  -27.3363   22.5080   -3.8699 H   0  0  0  0  0  0  0  0  0  0  0  0
  -25.9413   20.9512   -5.3196 H   0  0  0  0  0  0  0  0  0  0  0  0
  -27.3566   21.5276   -6.1663 H   0  0  0  0  0  0  0  0  0  0  0  0
  -27.8735   26.0561   -4.5141 H   0  0  0  0  0  0  0  0  0  0  0  0
  -26.7806   25.2437   -3.3608 H   0  0  0  0  0  0  0  0  0  0  0  0
  -28.4437   24.6257   -3.5544 H   0  0  0  0  0  0  0  0  0  0  0  0
  -19.4261   25.3323  -13.2568 H   0  0  0  0  0  0  0  0  0  0  0  0
  -18.8189   23.7080  -13.5888 H   0  0  0  0  0  0  0  0  0  0  0  0
  -18.8924   24.3304  -11.9078 H   0  0  0  0  0  0  0  0  0  0  0  0
  -23.9896   24.5647  -13.1595 H   0  0  0  0  0  0  0  0  0  0  0  0
  -23.1560   19.9820  -11.3146 H   0  0  0  0  0  0  0  0  0  0  0  0
  -21.2532   18.7268  -10.8595 H   0  0  0  0  0  0  0  0  0  0  0  0
  -18.9993   19.6991  -11.1491 H   0  0  0  0  0  0  0  0  0  0  0  0
  -18.7564   21.9881  -11.9806 H   0  0  0  0  0  0  0  0  0  0  0  0
  -24.7030   20.2042  -12.1576 H   0  0  0  0  0  0  0  0  0  0  0  0
  -26.2363   20.9048  -12.2365 H   0  0  0  0  0  0  0  0  0  0  0  0
  -24.8421   22.9440   -3.1888 H   0  0  0  0  0  0  0  0  0  0  0  0
  -23.9700   24.9635   -4.6862 H   0  0  0  0  0  0  0  0  0  0  0  0
  -28.1578   23.3537   -6.9389 H   0  0  0  0  0  0  0  0  0  0  0  0
  -28.6497   25.0006   -6.4573 H   0  0  0  0  0  0  0  0  0  0  0  0
  -29.1748   23.5646   -5.4886 H   0  0  0  0  0  0  0  0  0  0  0  0
  -26.3977   24.1270   -7.8826 H   0  0  0  0  0  0  0  0  0  0  0  0
  -24.6888   24.3232   -7.5671 H   0  0  0  0  0  0  0  0  0  0  0  0
  1 21  2  0  0  0  0
  1 24  1  0  0  0  0
  1 30  1  0  0  0  0
  2  5  1  0  0  0  0
  2 24  1  0  0  0  0
  2 29  1  0  0  0  0
  2 31  1  1  0  0  0
  3 26  1  0  0  0  0
  3 27  1  0  0  0  0
  3 29  1  0  0  0  0
  3 32  1  6  0  0  0
  4  5  1  0  0  0  0
  4 25  1  0  0  0  0
  4 27  1  0  0  0  0
  4 33  1  1  0  0  0
  5 34  1  0  0  0  0
  5 35  1  0  0  0  0
  6 27  1  0  0  0  0
  6 36  1  0  0  0  0
  6 37  1  0  0  0  0
  6 38  1  0  0  0  0
  7  8  2  0  0  0  0
  7  9  1  0  0  0  0
  7 11  1  0  0  0  0
  9 10  1  0  0  0  0
  9 18  1  0  0  0  0
 10 39  1  0  0  0  0
 10 40  1  0  0  0  0
 10 41  1  0  0  0  0
 11 12  2  0  0  0  0
 11 42  1  0  0  0  0
 12 13  1  0  0  0  0
 12 19  1  0  0  0  0
 13 14  2  0  0  0  0
 13 18  1  0  0  0  0
 14 15  1  0  0  0  0
 14 43  1  0  0  0  0
 15 16  2  0  0  0  0
 15 44  1  0  0  0  0
 16 17  1  0  0  0  0
 16 45  1  0  0  0  0
 17 18  2  0  0  0  0
 17 46  1  0  0  0  0
 19 20  1  0  0  0  0
 20 21  1  0  0  0  0
 20 47  1  0  0  0  0
 20 48  1  0  0  0  0
 21 22  1  0  0  0  0
 22 23  1  0  0  0  0
 23 24  2  0  0  0  0
 25 26  2  0  0  0  0
 25 49  1  0  0  0  0
 26 50  1  0  0  0  0
 27 28  1  0  0  0  0
 28 51  1  0  0  0  0
 28 52  1  0  0  0  0
 28 53  1  0  0  0  0
 29 54  1  0  0  0  0
 29 55  1  0  0  0  0
M  CHG  3   9   1  24   1  27   1
M  END
$$$$
