0JN
 OpenBabel04111919063D

 46 49  0  0  0  0  0  0  0  0999 V2000
   35.8486   12.9567   18.8699 N   0  0  0  0  0  0  0  0  0  0  0  0
   36.9919   12.3526   18.4904 C   0  0  0  0  0  0  0  0  0  0  0  0
   38.0552   12.8755   17.8487 N   0  0  0  0  0  0  0  0  0  0  0  0
   37.8650   14.1961   17.5703 C   0  0  0  0  0  0  0  0  0  0  0  0
   36.7386   14.9204   17.9134 C   0  0  0  0  0  0  0  0  0  0  0  0
   35.7177   14.2588   18.5941 C   0  0  0  0  0  0  0  0  0  0  0  0
   40.0292   13.6169   15.4624 C   0  0  0  0  0  0  0  0  0  0  0  0
   40.4546   16.0710   15.5007 C   0  0  0  0  0  0  0  0  0  0  0  0
   35.7122   18.1112   12.5124 C   0  0  0  0  0  0  0  0  0  0  0  0
   36.7877   18.0966   13.3783 C   0  0  0  0  0  0  0  0  0  0  0  0
   32.6299   17.3507   16.1730 C   0  0  0  0  0  0  0  0  0  0  0  0
   33.6976   17.3469   17.0603 C   0  0  0  0  0  0  0  0  0  0  0  0
   34.4133   17.9258   12.9949 C   0  0  0  0  0  0  0  0  0  0  0  0
   32.8713   17.5293   14.8238 C   0  0  0  0  0  0  0  0  0  0  0  0
   35.0310   17.4681   16.6225 C   0  0  0  0  0  0  0  0  0  0  0  0
   36.9836   16.2415   17.4738 C   0  0  0  0  0  0  0  0  0  0  0  0
   34.1823   17.7031   14.3538 C   0  0  0  0  0  0  0  0  0  0  0  0
   38.6950   15.0790   16.9514 N   0  3  0  0  0  0  0  0  0  0  0  0
   40.0257   14.8565   16.3650 C   0  0  0  0  0  0  0  0  0  0  0  0
   41.0565   14.6903   17.4879 C   0  0  0  0  0  0  0  0  0  0  0  0
   38.2067   16.3373   16.9425 N   0  0  0  0  0  0  0  0  0  0  0  0
   34.6124   14.9367   19.0269 N   0  0  0  0  0  0  0  0  0  0  0  0
   36.1525   17.4784   17.6386 C   0  0  0  0  0  0  0  0  0  0  0  0
   35.2760   17.6759   15.2504 C   0  0  0  0  0  0  0  0  0  0  0  0
   36.5649   17.8973   14.7319 C   0  0  0  0  0  0  0  0  0  0  0  0
   37.0705   11.3009   18.7386 H   0  0  0  0  0  0  0  0  0  0  0  0
   41.0210   13.4496   15.0292 H   0  0  0  0  0  0  0  0  0  0  0  0
   39.3107   13.7279   14.6427 H   0  0  0  0  0  0  0  0  0  0  0  0
   39.7658   12.7129   16.0177 H   0  0  0  0  0  0  0  0  0  0  0  0
   40.4898   16.9936   16.0951 H   0  0  0  0  0  0  0  0  0  0  0  0
   39.7497   16.2375   14.6767 H   0  0  0  0  0  0  0  0  0  0  0  0
   41.4507   15.9282   15.0701 H   0  0  0  0  0  0  0  0  0  0  0  0
   35.8804   18.2628   11.4499 H   0  0  0  0  0  0  0  0  0  0  0  0
   37.8044   18.2270   13.0229 H   0  0  0  0  0  0  0  0  0  0  0  0
   31.6154   17.2278   16.5436 H   0  0  0  0  0  0  0  0  0  0  0  0
   33.4528   17.2691   18.1142 H   0  0  0  0  0  0  0  0  0  0  0  0
   33.5859   17.9589   12.2914 H   0  0  0  0  0  0  0  0  0  0  0  0
   32.0272   17.5648   14.1293 H   0  0  0  0  0  0  0  0  0  0  0  0
   40.8171   13.8329   18.1243 H   0  0  0  0  0  0  0  0  0  0  0  0
   41.0915   15.5811   18.1260 H   0  0  0  0  0  0  0  0  0  0  0  0
   42.0600   14.5338   17.0762 H   0  0  0  0  0  0  0  0  0  0  0  0
   34.5328   15.8967   18.7665 H   0  0  0  0  0  0  0  0  0  0  0  0
   33.8320   14.4499   19.4270 H   0  0  0  0  0  0  0  0  0  0  0  0
   35.7502   17.5356   18.6523 H   0  0  0  0  0  0  0  0  0  0  0  0
   36.7472   18.3870   17.4989 H   0  0  0  0  0  0  0  0  0  0  0  0
   37.4410   17.9103   15.3739 H   0  0  0  0  0  0  0  0  0  0  0  0
  1  2  1  0  0  0  0
  1  6  2  0  0  0  0
  2  3  2  0  0  0  0
  2 26  1  0  0  0  0
  3  4  1  0  0  0  0
  4  5  1  0  0  0  0
  4 18  2  0  0  0  0
  5  6  1  0  0  0  0
  5 16  2  0  0  0  0
  6 22  1  0  0  0  0
  7 19  1  0  0  0  0
  7 27  1  0  0  0  0
  7 28  1  0  0  0  0
  7 29  1  0  0  0  0
  8 19  1  0  0  0  0
  8 30  1  0  0  0  0
  8 31  1  0  0  0  0
  8 32  1  0  0  0  0
  9 10  2  0  0  0  0
  9 13  1  0  0  0  0
  9 33  1  0  0  0  0
 10 25  1  0  0  0  0
 10 34  1  0  0  0  0
 11 12  1  0  0  0  0
 11 14  2  0  0  0  0
 11 35  1  0  0  0  0
 12 15  2  0  0  0  0
 12 36  1  0  0  0  0
 13 17  2  0  0  0  0
 13 37  1  0  0  0  0
 14 17  1  0  0  0  0
 14 38  1  0  0  0  0
 15 23  1  0  0  0  0
 15 24  1  0  0  0  0
 16 21  1  0  0  0  0
 16 23  1  0  0  0  0
 17 24  1  0  0  0  0
 18 19  1  0  0  0  0
 18 21  1  0  0  0  0
 19 20  1  0  0  0  0
 20 39  1  0  0  0  0
 20 40  1  0  0  0  0
 20 41  1  0  0  0  0
 22 42  1  0  0  0  0
 22 43  1  0  0  0  0
 23 44  1  0  0  0  0
 23 45  1  0  0  0  0
 24 25  2  0  0  0  0
 25 46  1  0  0  0  0
M  CHG  1  18   1
M  END
$$$$
