0JP
 OpenBabel04111918323D

 37 40  0  0  0  0  0  0  0  0999 V2000
    7.6525   38.3164   56.9697 C   0  0  0  0  0  0  0  0  0  0  0  0
    8.5249   38.4067   59.6487 C   0  0  0  0  0  0  0  0  0  0  0  0
    9.0455   37.6367   53.9508 C   0  0  0  0  0  0  0  0  0  0  0  0
   10.9116   41.5546   55.7418 C   0  0  0  0  0  0  0  0  0  0  0  0
    8.8082   37.8528   51.7753 C   0  0  0  0  0  0  0  0  0  0  0  0
    8.8075   39.0377   57.2827 C   0  0  0  0  0  0  0  0  0  0  0  0
    9.2212   39.1088   58.6438 C   0  0  0  0  0  0  0  0  0  0  0  0
    6.9501   37.6274   57.9758 C   0  0  0  0  0  0  0  0  0  0  0  0
    7.3889   37.6750   59.3178 C   0  0  0  0  0  0  0  0  0  0  0  0
    9.8044   39.8896   54.9325 C   0  0  0  0  0  0  0  0  0  0  0  0
    9.5709   39.8393   56.3004 C   0  0  0  0  0  0  0  0  0  0  0  0
    9.3816   38.9679   53.8410 C   0  0  0  0  0  0  0  0  0  0  0  0
   10.4196   39.9693   58.9993 C   0  0  0  0  0  0  0  0  0  0  0  0
   10.3778   41.2578   58.1779 C   0  0  0  0  0  0  0  0  0  0  0  0
    5.2129   36.8325   56.5066 C   0  0  0  0  0  0  0  0  0  0  0  0
    6.8382   37.0467   61.5838 C   0  0  0  0  0  0  0  0  0  0  0  0
    8.6899   37.0024   52.7696 N   0  0  0  0  0  0  0  0  0  0  0  0
   10.5948   40.9864   54.6057 N   0  0  0  0  0  0  0  0  0  0  0  0
   10.3043   40.9213   56.7668 N   0  3  0  0  0  0  0  0  0  0  0  0
    5.8090   36.8907   57.7880 O   0  0  0  0  0  0  0  0  0  0  0  0
    6.6223   36.9427   60.1897 O   0  0  0  0  0  0  0  0  0  0  0  0
    9.3403   39.4282   52.1852 S   0  0  0  0  0  0  0  0  0  0  0  0
    7.2788   38.3087   55.9533 H   0  0  0  0  0  0  0  0  0  0  0  0
    8.8721   38.4648   60.6768 H   0  0  0  0  0  0  0  0  0  0  0  0
    9.0681   37.0536   54.8619 H   0  0  0  0  0  0  0  0  0  0  0  0
   11.5647   42.4105   55.8567 H   0  0  0  0  0  0  0  0  0  0  0  0
    8.5946   37.5832   50.7494 H   0  0  0  0  0  0  0  0  0  0  0  0
   11.3351   39.4056   58.7761 H   0  0  0  0  0  0  0  0  0  0  0  0
   10.4297   40.2174   60.0657 H   0  0  0  0  0  0  0  0  0  0  0  0
   11.2603   41.8814   58.3501 H   0  0  0  0  0  0  0  0  0  0  0  0
    9.4773   41.8438   58.4028 H   0  0  0  0  0  0  0  0  0  0  0  0
    4.3421   36.1722   56.5867 H   0  0  0  0  0  0  0  0  0  0  0  0
    5.8934   36.3958   55.7706 H   0  0  0  0  0  0  0  0  0  0  0  0
    4.8545   37.8174   56.1935 H   0  0  0  0  0  0  0  0  0  0  0  0
    6.1223   36.3713   62.0682 H   0  0  0  0  0  0  0  0  0  0  0  0
    6.6310   38.0589   61.9444 H   0  0  0  0  0  0  0  0  0  0  0  0
    7.8412   36.7160   61.8627 H   0  0  0  0  0  0  0  0  0  0  0  0
  1  6  2  0  0  0  0
  1  8  1  0  0  0  0
  1 23  1  0  0  0  0
  2  7  2  0  0  0  0
  2  9  1  0  0  0  0
  2 24  1  0  0  0  0
  3 12  2  0  0  0  0
  3 17  1  0  0  0  0
  3 25  1  0  0  0  0
  4 18  1  0  0  0  0
  4 19  2  0  0  0  0
  4 26  1  0  0  0  0
  5 17  2  0  0  0  0
  5 22  1  0  0  0  0
  5 27  1  0  0  0  0
  6  7  1  0  0  0  0
  6 11  1  0  0  0  0
  7 13  1  0  0  0  0
  8  9  2  0  0  0  0
  8 20  1  0  0  0  0
  9 21  1  0  0  0  0
 10 11  2  0  0  0  0
 10 12  1  0  0  0  0
 10 18  1  0  0  0  0
 11 19  1  0  0  0  0
 12 22  1  0  0  0  0
 13 14  1  0  0  0  0
 13 28  1  0  0  0  0
 13 29  1  0  0  0  0
 14 19  1  0  0  0  0
 14 30  1  0  0  0  0
 14 31  1  0  0  0  0
 15 20  1  0  0  0  0
 15 32  1  0  0  0  0
 15 33  1  0  0  0  0
 15 34  1  0  0  0  0
 16 21  1  0  0  0  0
 16 35  1  0  0  0  0
 16 36  1  0  0  0  0
 16 37  1  0  0  0  0
M  CHG  1  19   1
M  END
$$$$
