0K7
 OpenBabel04111918333D

 23 24  0  0  0  0  0  0  0  0999 V2000
  -70.1433   33.3769  -45.7075 C   0  0  0  0  0  0  0  0  0  0  0  0
  -70.3479   33.4156  -47.0981 C   0  0  0  0  0  0  0  0  0  0  0  0
  -71.4826   34.0334  -47.6290 C   0  0  0  0  0  0  0  0  0  0  0  0
  -71.7046   34.0714  -49.1110 C   0  0  0  0  0  0  0  0  0  0  0  0
  -72.4053   34.6117  -46.7516 C   0  0  0  0  0  0  0  0  0  0  0  0
  -72.1899   34.5794  -45.3597 C   0  0  0  0  0  0  0  0  0  0  0  0
  -71.0568   33.9629  -44.8124 C   0  0  0  0  0  0  0  0  0  0  0  0
  -70.8145   33.8772  -43.3525 C   0  0  0  0  0  0  0  0  0  0  0  0
  -70.1231   32.9218  -42.7643 N   0  0  0  0  0  0  0  0  0  0  0  0
  -71.4209   35.0847  -42.2655 S   0  0  0  0  0  0  0  0  0  0  0  0
  -70.7949   34.2195  -40.9257 C   0  0  0  0  0  0  0  0  0  0  0  0
  -70.1315   33.0818  -41.3649 C   0  0  0  0  0  0  0  0  0  0  0  0
  -69.4632   32.1406  -40.4024 C   0  0  0  0  0  0  0  0  0  0  0  0
  -69.9088   32.1350  -39.2090 O   0  0  0  0  0  0  0  0  0  0  0  0
  -68.4983   31.4384  -40.8425 O   0  0  0  0  0  0  0  0  0  0  0  0
  -69.2542   32.8786  -45.3209 H   0  0  0  0  0  0  0  0  0  0  0  0
  -69.6194   32.9500  -47.7581 H   0  0  0  0  0  0  0  0  0  0  0  0
  -72.6363   34.5895  -49.3615 H   0  0  0  0  0  0  0  0  0  0  0  0
  -71.7698   33.0549  -49.5116 H   0  0  0  0  0  0  0  0  0  0  0  0
  -70.8839   34.6019  -49.6039 H   0  0  0  0  0  0  0  0  0  0  0  0
  -73.2999   35.0918  -47.1354 H   0  0  0  0  0  0  0  0  0  0  0  0
  -72.9471   35.0314  -44.7265 H   0  0  0  0  0  0  0  0  0  0  0  0
  -70.8757   34.5740  -39.9105 H   0  0  0  0  0  0  0  0  0  0  0  0
  1  2  2  0  0  0  0
  1  7  1  0  0  0  0
  1 16  1  0  0  0  0
  2  3  1  0  0  0  0
  2 17  1  0  0  0  0
  3  4  1  0  0  0  0
  3  5  2  0  0  0  0
  4 18  1  0  0  0  0
  4 19  1  0  0  0  0
  4 20  1  0  0  0  0
  5  6  1  0  0  0  0
  5 21  1  0  0  0  0
  6  7  2  0  0  0  0
  6 22  1  0  0  0  0
  7  8  1  0  0  0  0
  8  9  2  0  0  0  0
  8 10  1  0  0  0  0
  9 12  1  0  0  0  0
 10 11  1  0  0  0  0
 11 12  2  0  0  0  0
 11 23  1  0  0  0  0
 12 13  1  0  0  0  0
 13 14  2  0  0  0  0
 13 15  1  0  0  0  0
M  END
$$$$
