0KQ
 OpenBabel04111918353D

 42 45  0  0  1  0  0  0  0  0999 V2000
   22.5616   11.8494   22.8071 C   0  0  0  0  0  0  0  0  0  0  0  0
   22.3654   10.6639   21.8133 C   0  0  2  0  0  0  0  0  0  0  0  0
   22.5810    9.4687   22.6892 N   0  0  0  0  0  0  0  0  0  0  0  0
   22.7281    9.9137   23.9778 C   0  0  0  0  0  0  0  0  0  0  0  0
   22.7420   11.2490   24.0811 N   0  0  0  0  0  0  0  0  0  0  0  0
   22.8509    9.1118   25.0288 N   0  0  0  0  0  0  0  0  0  0  0  0
   22.9490   12.0583   25.2756 C   0  0  0  0  0  0  0  0  0  0  0  0
   22.5385   13.0253   22.5750 O   0  0  0  0  0  0  0  0  0  0  0  0
   23.4351   10.7260   20.7482 C   0  0  0  0  0  0  0  0  0  0  0  0
   20.9361   10.7271   21.3313 C   0  0  0  0  0  0  0  0  0  0  0  0
   23.1216   10.9455   19.4058 C   0  0  0  0  0  0  0  0  0  0  0  0
   24.1202   11.0982   18.4485 C   0  0  0  0  0  0  0  0  0  0  0  0
   25.4585   11.0625   18.8308 C   0  0  0  0  0  0  0  0  0  0  0  0
   25.8245   10.8449   20.1631 C   0  0  0  0  0  0  0  0  0  0  0  0
   24.7953   10.6553   21.1008 C   0  0  0  0  0  0  0  0  0  0  0  0
   27.2261   10.8482   20.5918 C   0  0  0  0  0  0  0  0  0  0  0  0
   28.1752   11.6991   20.0232 C   0  0  0  0  0  0  0  0  0  0  0  0
   29.8207   11.0725   21.5069 C   0  0  0  0  0  0  0  0  0  0  0  0
   27.6710   10.0419   21.6419 C   0  0  0  0  0  0  0  0  0  0  0  0
   29.4568   11.8377   20.4521 N   0  0  0  0  0  0  0  0  0  0  0  0
   20.1949    9.4637   20.9907 C   0  0  0  0  0  0  0  0  0  0  0  0
   19.7680   10.2702   22.1941 C   0  0  0  0  0  0  0  0  0  0  0  0
   28.9720   10.1628   22.1124 C   0  0  0  0  0  0  0  0  0  0  0  0
   29.5063    9.2031   23.4218 Cl  0  0  0  0  0  0  0  0  0  0  0  0
   22.6401    8.5099   22.3808 H   0  0  0  0  0  0  0  0  0  0  0  0
   22.9855    9.5207   25.9472 H   0  0  0  0  0  0  0  0  0  0  0  0
   22.9300   13.1273   25.0360 H   0  0  0  0  0  0  0  0  0  0  0  0
   23.9218   11.8123   25.7121 H   0  0  0  0  0  0  0  0  0  0  0  0
   22.1554   11.8416   25.9948 H   0  0  0  0  0  0  0  0  0  0  0  0
   20.7642   11.6316   20.7390 H   0  0  0  0  0  0  0  0  0  0  0  0
   22.0863   11.0032   19.0873 H   0  0  0  0  0  0  0  0  0  0  0  0
   23.8552   11.2518   17.4038 H   0  0  0  0  0  0  0  0  0  0  0  0
   26.2222   11.1969   18.0674 H   0  0  0  0  0  0  0  0  0  0  0  0
   25.0651   10.4658   22.1405 H   0  0  0  0  0  0  0  0  0  0  0  0
   27.8967   12.3282   19.1793 H   0  0  0  0  0  0  0  0  0  0  0  0
   30.8359   11.1937   21.8755 H   0  0  0  0  0  0  0  0  0  0  0  0
   27.0046    9.3181   22.0990 H   0  0  0  0  0  0  0  0  0  0  0  0
   20.6945    8.5129   21.1384 H   0  0  0  0  0  0  0  0  0  0  0  0
   19.5601    9.4427   20.1090 H   0  0  0  0  0  0  0  0  0  0  0  0
   18.8225   10.8120   22.1528 H   0  0  0  0  0  0  0  0  0  0  0  0
   19.9546    9.8839   23.1912 H   0  0  0  0  0  0  0  0  0  0  0  0
   22.8193    8.1037   24.9576 H   0  0  0  0  0  0  0  0  0  0  0  0
  1  2  1  0  0  0  0
  1  5  1  0  0  0  0
  1  8  2  0  0  0  0
  2  3  1  0  0  0  0
  2  9  1  6  0  0  0
  2 10  1  0  0  0  0
  3  4  1  0  0  0  0
  3 25  1  0  0  0  0
  4  5  1  0  0  0  0
  4  6  2  0  0  0  0
  5  7  1  0  0  0  0
  6 26  1  0  0  0  0
  6 42  1  0  0  0  0
  7 27  1  0  0  0  0
  7 28  1  0  0  0  0
  7 29  1  0  0  0  0
  9 11  2  0  0  0  0
  9 15  1  0  0  0  0
 10 21  1  0  0  0  0
 10 22  1  0  0  0  0
 10 30  1  0  0  0  0
 11 12  1  0  0  0  0
 11 31  1  0  0  0  0
 12 13  2  0  0  0  0
 12 32  1  0  0  0  0
 13 14  1  0  0  0  0
 13 33  1  0  0  0  0
 14 15  2  0  0  0  0
 14 16  1  0  0  0  0
 15 34  1  0  0  0  0
 16 17  2  0  0  0  0
 16 19  1  0  0  0  0
 17 20  1  0  0  0  0
 17 35  1  0  0  0  0
 18 20  2  0  0  0  0
 18 23  1  0  0  0  0
 18 36  1  0  0  0  0
 19 23  2  0  0  0  0
 19 37  1  0  0  0  0
 21 22  1  0  0  0  0
 21 38  1  0  0  0  0
 21 39  1  0  0  0  0
 22 40  1  0  0  0  0
 22 41  1  0  0  0  0
 23 24  1  0  0  0  0
M  END
$$$$
