0LK
 OpenBabel04111918363D

 45 47  0  0  1  0  0  0  0  0999 V2000
   -3.8981  -15.9106   13.7821 C   0  0  0  0  0  0  0  0  0  0  0  0
   -4.1020  -15.7591   16.2607 C   0  0  0  0  0  0  0  0  0  0  0  0
   -5.4171  -15.2504   18.6994 C   0  0  0  0  0  0  0  0  0  0  0  0
   -6.1376  -15.3656   17.5183 C   0  0  0  0  0  0  0  0  0  0  0  0
   -5.4909  -15.6119   16.3062 C   0  0  0  0  0  0  0  0  0  0  0  0
   -4.7976  -15.1328    7.2058 C   0  0  0  0  0  0  0  0  0  0  0  0
   -4.2137  -15.8437    8.2616 C   0  0  0  0  0  0  0  0  0  0  0  0
   -3.2598  -15.2096    9.0453 C   0  0  0  0  0  0  0  0  0  0  0  0
   -2.8956  -13.8885    8.7774 C   0  0  0  0  0  0  0  0  0  0  0  0
   -3.4726  -13.1681    7.7449 C   0  0  0  0  0  0  0  0  0  0  0  0
   -4.4265  -13.7994    6.9548 C   0  0  0  0  0  0  0  0  0  0  0  0
   -2.5128  -15.7688   10.2184 C   0  0  1  0  0  0  0  0  0  0  0  0
   -1.3749  -14.6899   10.3969 C   0  0  2  0  0  0  0  0  0  0  0  0
   -1.8803  -13.3842    9.7472 C   0  0  0  0  0  0  0  0  0  0  0  0
   -0.0769  -15.0894    9.7720 N   0  0  0  0  0  0  0  0  0  0  0  0
   -3.3499  -15.9148   11.3874 N   0  0  0  0  0  0  0  0  0  0  0  0
   -2.8598  -16.1543   12.6582 C   0  0  0  0  0  0  0  0  0  0  0  0
   -3.3908  -16.0212   15.0640 N   0  0  0  0  0  0  0  0  0  0  0  0
   -5.0201  -15.5698   13.4330 O   0  0  0  0  0  0  0  0  0  0  0  0
   -1.6956  -16.4453   12.8893 O   0  0  0  0  0  0  0  0  0  0  0  0
   -3.3753  -15.6491   17.4550 C   0  0  0  0  0  0  0  0  0  0  0  0
   -4.0296  -15.3872   18.6708 C   0  0  0  0  0  0  0  0  0  0  0  0
   -6.2164  -14.9434   20.1909 Cl  0  0  0  0  0  0  0  0  0  0  0  0
   -7.4747  -15.2520   17.5181 F   0  0  0  0  0  0  0  0  0  0  0  0
    0.6183  -16.1937   10.0585 C   0  0  0  0  0  0  0  0  0  0  0  0
    0.2248  -17.0629   10.9870 N   0  0  0  0  0  0  0  0  0  0  0  0
    1.7550  -16.4286    9.3952 N   0  0  0  0  0  0  0  0  0  0  0  0
   -6.1176  -15.7012   15.4270 H   0  0  0  0  0  0  0  0  0  0  0  0
   -5.5417  -15.6027    6.5764 H   0  0  0  0  0  0  0  0  0  0  0  0
   -4.5125  -16.8718    8.4434 H   0  0  0  0  0  0  0  0  0  0  0  0
   -3.1959  -12.1350    7.5532 H   0  0  0  0  0  0  0  0  0  0  0  0
   -4.8980  -13.2604    6.1340 H   0  0  0  0  0  0  0  0  0  0  0  0
   -2.1045  -16.7510    9.9597 H   0  0  0  0  0  0  0  0  0  0  0  0
   -1.1367  -14.4773   11.4444 H   0  0  0  0  0  0  0  0  0  0  0  0
   -2.3521  -12.7296   10.4855 H   0  0  0  0  0  0  0  0  0  0  0  0
   -1.0764  -12.8485    9.2328 H   0  0  0  0  0  0  0  0  0  0  0  0
    0.3267  -14.4609    9.0886 H   0  0  0  0  0  0  0  0  0  0  0  0
   -4.3675  -15.8345   11.3035 H   0  0  0  0  0  0  0  0  0  0  0  0
   -2.4014  -16.2361   15.1433 H   0  0  0  0  0  0  0  0  0  0  0  0
   -2.2913  -15.7373   17.4633 H   0  0  0  0  0  0  0  0  0  0  0  0
   -3.4552  -15.2890   19.5885 H   0  0  0  0  0  0  0  0  0  0  0  0
    0.7497  -17.8987   11.1987 H   0  0  0  0  0  0  0  0  0  0  0  0
    2.1045  -15.7933    8.6881 H   0  0  0  0  0  0  0  0  0  0  0  0
    2.3123  -17.2511    9.5832 H   0  0  0  0  0  0  0  0  0  0  0  0
   -0.5688  -16.8770   11.6035 H   0  0  0  0  0  0  0  0  0  0  0  0
  1 17  1  0  0  0  0
  1 18  1  0  0  0  0
  1 19  2  0  0  0  0
  2  5  2  0  0  0  0
  2 18  1  0  0  0  0
  2 21  1  0  0  0  0
  3  4  2  0  0  0  0
  3 22  1  0  0  0  0
  3 23  1  0  0  0  0
  4  5  1  0  0  0  0
  4 24  1  0  0  0  0
  5 28  1  0  0  0  0
  6  7  2  0  0  0  0
  6 11  1  0  0  0  0
  6 29  1  0  0  0  0
  7  8  1  0  0  0  0
  7 30  1  0  0  0  0
  8  9  2  0  0  0  0
  8 12  1  0  0  0  0
  9 10  1  0  0  0  0
  9 14  1  0  0  0  0
 10 11  2  0  0  0  0
 10 31  1  0  0  0  0
 11 32  1  0  0  0  0
 12 13  1  0  0  0  0
 12 16  1  0  0  0  0
 12 33  1  6  0  0  0
 13 14  1  0  0  0  0
 13 15  1  0  0  0  0
 13 34  1  1  0  0  0
 14 35  1  0  0  0  0
 14 36  1  0  0  0  0
 15 25  1  0  0  0  0
 15 37  1  0  0  0  0
 16 17  1  0  0  0  0
 16 38  1  0  0  0  0
 17 20  2  0  0  0  0
 18 39  1  0  0  0  0
 21 22  2  0  0  0  0
 21 40  1  0  0  0  0
 22 41  1  0  0  0  0
 25 26  2  0  0  0  0
 25 27  1  0  0  0  0
 26 42  1  0  0  0  0
 26 45  1  0  0  0  0
 27 43  1  0  0  0  0
 27 44  1  0  0  0  0
M  END
$$$$
