0LM
 OpenBabel04111918353D

 51 52  0  0  1  0  0  0  0  0999 V2000
   28.1230  -15.5246   37.5017 C   0  0  0  0  0  0  0  0  0  0  0  0
   28.4298  -15.3505   35.0282 C   0  0  1  0  0  0  0  0  0  0  0  0
   28.1599  -13.2886   33.4178 C   0  0  0  0  0  0  0  0  0  0  0  0
   30.4002  -13.6841   34.7979 C   0  0  0  0  0  0  0  0  0  0  0  0
   31.9031  -13.7211   34.4321 C   0  0  0  0  0  0  0  0  0  0  0  0
   27.3058  -12.2793   34.1942 C   0  0  0  0  0  0  0  0  0  0  0  0
   27.8718  -13.1239   31.9003 C   0  0  0  0  0  0  0  0  0  0  0  0
   27.2351  -14.7488   43.5277 C   0  0  0  0  0  0  0  0  0  0  0  0
   25.8591  -14.5557   43.6047 C   0  0  0  0  0  0  0  0  0  0  0  0
   25.0853  -14.6910   42.4589 C   0  0  0  0  0  0  0  0  0  0  0  0
   25.6642  -14.9825   41.2279 C   0  0  0  0  0  0  0  0  0  0  0  0
   27.0408  -15.1812   41.1429 C   0  0  0  0  0  0  0  0  0  0  0  0
   27.8282  -15.0886   42.2949 C   0  0  0  0  0  0  0  0  0  0  0  0
   27.6668  -15.4896   39.9141 N   0  0  0  0  0  0  0  0  0  0  0  0
   27.2367  -15.0489   38.6728 C   0  0  0  0  0  0  0  0  0  0  0  0
   26.3156  -14.2852   38.4111 O   0  0  0  0  0  0  0  0  0  0  0  0
   27.8205  -14.9269   36.2806 N   0  0  0  0  0  0  0  0  0  0  0  0
   29.0181  -16.3315   37.6960 O   0  0  0  0  0  0  0  0  0  0  0  0
   27.7783  -14.7427   33.7876 C   0  0  0  0  0  0  0  0  0  0  0  0
   29.6718  -13.0316   33.5996 N   0  3  2  0  0  0  0  0  0  0  0  0
   29.9402  -15.1414   34.9619 C   0  0  0  0  0  0  0  0  0  0  0  0
   30.2268  -12.8903   36.0996 C   0  0  0  0  0  0  0  0  0  0  0  0
   30.1016  -11.5840   33.3484 C   0  0  0  0  0  0  0  0  0  0  0  0
   25.1428  -14.1635   45.1208 Cl  0  0  0  0  0  0  0  0  0  0  0  0
   23.7501  -14.5463   42.5175 F   0  0  0  0  0  0  0  0  0  0  0  0
   28.2530  -16.4351   34.9847 H   0  0  0  0  0  0  0  0  0  0  0  0
   32.4765  -14.2808   35.1773 H   0  0  0  0  0  0  0  0  0  0  0  0
   32.3392  -12.7184   34.3816 H   0  0  0  0  0  0  0  0  0  0  0  0
   32.0609  -14.2041   33.4594 H   0  0  0  0  0  0  0  0  0  0  0  0
   26.2405  -12.4932   34.0390 H   0  0  0  0  0  0  0  0  0  0  0  0
   27.4667  -11.2515   33.8528 H   0  0  0  0  0  0  0  0  0  0  0  0
   27.4806  -12.3092   35.2688 H   0  0  0  0  0  0  0  0  0  0  0  0
   28.5134  -13.7863   31.3049 H   0  0  0  0  0  0  0  0  0  0  0  0
   28.0423  -12.1044   31.5437 H   0  0  0  0  0  0  0  0  0  0  0  0
   26.8310  -13.3687   31.6670 H   0  0  0  0  0  0  0  0  0  0  0  0
   27.8563  -14.6319   44.4110 H   0  0  0  0  0  0  0  0  0  0  0  0
   25.0107  -15.0951   40.3689 H   0  0  0  0  0  0  0  0  0  0  0  0
   28.9058  -15.2250   42.2578 H   0  0  0  0  0  0  0  0  0  0  0  0
   28.5649  -15.9687   39.9343 H   0  0  0  0  0  0  0  0  0  0  0  0
   26.9441  -14.4024   36.2952 H   0  0  0  0  0  0  0  0  0  0  0  0
   26.6860  -14.8226   33.8720 H   0  0  0  0  0  0  0  0  0  0  0  0
   28.0453  -15.3926   32.9415 H   0  0  0  0  0  0  0  0  0  0  0  0
   30.3219  -15.7343   34.1188 H   0  0  0  0  0  0  0  0  0  0  0  0
   30.4223  -15.5657   35.8501 H   0  0  0  0  0  0  0  0  0  0  0  0
   30.7391  -13.4052   36.9218 H   0  0  0  0  0  0  0  0  0  0  0  0
   29.1863  -12.7731   36.4000 H   0  0  0  0  0  0  0  0  0  0  0  0
   30.6695  -11.8918   36.0462 H   0  0  0  0  0  0  0  0  0  0  0  0
   29.4957  -11.1432   32.5584 H   0  0  0  0  0  0  0  0  0  0  0  0
   31.1375  -11.5957   33.0027 H   0  0  0  0  0  0  0  0  0  0  0  0
   29.9887  -10.9995   34.2619 H   0  0  0  0  0  0  0  0  0  0  0  0
   30.0764  -13.5252   32.7952 H   0  0  0  0  0  0  0  0  0  0  0  0
  1 15  1  0  0  0  0
  1 17  1  0  0  0  0
  1 18  2  0  0  0  0
  2 17  1  0  0  0  0
  2 19  1  0  0  0  0
  2 21  1  0  0  0  0
  2 26  1  6  0  0  0
  3  6  1  0  0  0  0
  3  7  1  0  0  0  0
  3 19  1  0  0  0  0
  3 20  1  0  0  0  0
  4  5  1  0  0  0  0
  4 20  1  0  0  0  0
  4 21  1  0  0  0  0
  4 22  1  0  0  0  0
  5 27  1  0  0  0  0
  5 28  1  0  0  0  0
  5 29  1  0  0  0  0
  6 30  1  0  0  0  0
  6 31  1  0  0  0  0
  6 32  1  0  0  0  0
  7 33  1  0  0  0  0
  7 34  1  0  0  0  0
  7 35  1  0  0  0  0
  8  9  2  0  0  0  0
  8 13  1  0  0  0  0
  8 36  1  0  0  0  0
  9 10  1  0  0  0  0
  9 24  1  0  0  0  0
 10 11  2  0  0  0  0
 10 25  1  0  0  0  0
 11 12  1  0  0  0  0
 11 37  1  0  0  0  0
 12 13  2  0  0  0  0
 12 14  1  0  0  0  0
 13 38  1  0  0  0  0
 14 15  1  0  0  0  0
 14 39  1  0  0  0  0
 15 16  2  0  0  0  0
 17 40  1  0  0  0  0
 19 41  1  0  0  0  0
 19 42  1  0  0  0  0
 20 23  1  0  0  0  0
 20 51  1  6  0  0  0
 21 43  1  0  0  0  0
 21 44  1  0  0  0  0
 22 45  1  0  0  0  0
 22 46  1  0  0  0  0
 22 47  1  0  0  0  0
 23 48  1  0  0  0  0
 23 49  1  0  0  0  0
 23 50  1  0  0  0  0
M  CHG  1  20   1
M  END
$$$$
