0LX
 OpenBabel04111918393D

 58 59  0  0  1  0  0  0  0  0999 V2000
   16.3721   19.9345   28.6031 O   0  0  0  0  0  0  0  0  0  0  0  0
   16.3022   19.0893   27.7095 C   0  0  0  0  0  0  0  0  0  0  0  0
   15.3933   18.0602   27.6902 N   0  0  0  0  0  0  0  0  0  0  0  0
   14.5497   17.9799   28.8193 O   0  0  0  0  0  0  0  0  0  0  0  0
   17.2087   19.1628   26.4809 C   0  0  1  0  0  0  0  0  0  0  0  0
   17.0073   20.5376   25.8215 C   0  0  0  0  0  0  0  0  0  0  0  0
   15.5899   20.6737   25.2596 C   0  0  0  0  0  0  0  0  0  0  0  0
   15.0282   22.0710   25.4973 C   0  0  0  0  0  0  0  0  0  0  0  0
   13.5363   22.1137   25.1922 C   0  0  0  0  0  0  0  0  0  0  0  0
   12.7980   22.6347   26.3861 N   0  3  0  0  0  0  0  0  0  0  0  0
   11.4563   23.1994   26.0646 C   0  0  0  0  0  0  0  0  0  0  0  0
   10.5497   22.2044   25.4016 C   0  0  0  0  0  0  0  0  0  0  0  0
   10.0170   21.1208   26.1198 C   0  0  0  0  0  0  0  0  0  0  0  0
    9.1975   20.1943   25.4760 C   0  0  0  0  0  0  0  0  0  0  0  0
    8.9177   20.3432   24.1221 C   0  0  0  0  0  0  0  0  0  0  0  0
    9.4496   21.3995   23.3933 C   0  0  0  0  0  0  0  0  0  0  0  0
   10.2694   22.3297   24.0319 C   0  0  0  0  0  0  0  0  0  0  0  0
    8.1291   19.4542   23.5084 F   0  0  0  0  0  0  0  0  0  0  0  0
   18.6667   19.0057   26.9243 C   0  0  0  0  0  0  0  0  0  0  0  0
   18.8945   17.7170   27.7277 C   0  0  1  0  0  0  0  0  0  0  0  0
   18.7380   16.5955   26.8517 O   0  0  0  0  0  0  0  0  0  0  0  0
   18.8427   15.3458   27.5348 C   0  0  0  0  0  0  0  0  0  0  0  0
   20.2595   17.7569   28.3629 C   0  0  0  0  0  0  0  0  0  0  0  0
   20.3499   17.7456   29.7683 C   0  0  0  0  0  0  0  0  0  0  0  0
   21.5928   17.7795   30.3829 C   0  0  0  0  0  0  0  0  0  0  0  0
   22.7403   17.8323   29.6064 C   0  0  0  0  0  0  0  0  0  0  0  0
   22.6692   17.8467   28.2174 C   0  0  0  0  0  0  0  0  0  0  0  0
   21.4263   17.8032   27.5901 C   0  0  0  0  0  0  0  0  0  0  0  0
   23.9389   17.8712   30.2015 F   0  0  0  0  0  0  0  0  0  0  0  0
   15.4292   17.2804   27.0403 H   0  0  0  0  0  0  0  0  0  0  0  0
   14.1135   17.1135   28.7406 H   0  0  0  0  0  0  0  0  0  0  0  0
   16.9504   18.3751   25.7628 H   0  0  0  0  0  0  0  0  0  0  0  0
   17.7324   20.6847   25.0131 H   0  0  0  0  0  0  0  0  0  0  0  0
   17.2083   21.3303   26.5573 H   0  0  0  0  0  0  0  0  0  0  0  0
   14.9172   19.9424   25.7195 H   0  0  0  0  0  0  0  0  0  0  0  0
   15.6008   20.4473   24.1874 H   0  0  0  0  0  0  0  0  0  0  0  0
   15.5500   22.7798   24.8455 H   0  0  0  0  0  0  0  0  0  0  0  0
   15.2258   22.3796   26.5304 H   0  0  0  0  0  0  0  0  0  0  0  0
   13.1169   21.1301   24.9571 H   0  0  0  0  0  0  0  0  0  0  0  0
   13.3462   22.8021   24.3594 H   0  0  0  0  0  0  0  0  0  0  0  0
   12.6873   21.8683   27.0741 H   0  0  0  0  0  0  0  0  0  0  0  0
   11.6357   24.0686   25.4209 H   0  0  0  0  0  0  0  0  0  0  0  0
   11.0195   23.5620   27.0008 H   0  0  0  0  0  0  0  0  0  0  0  0
   10.2228   20.9874   27.1802 H   0  0  0  0  0  0  0  0  0  0  0  0
    8.7632   19.3576   26.0182 H   0  0  0  0  0  0  0  0  0  0  0  0
    9.2197   21.4931   22.3381 H   0  0  0  0  0  0  0  0  0  0  0  0
   10.6772   23.1520   23.4453 H   0  0  0  0  0  0  0  0  0  0  0  0
   18.9668   19.8746   27.5261 H   0  0  0  0  0  0  0  0  0  0  0  0
   19.2992   19.0090   26.0256 H   0  0  0  0  0  0  0  0  0  0  0  0
   18.1394   17.6345   28.5166 H   0  0  0  0  0  0  0  0  0  0  0  0
   18.7453   14.5467   26.7981 H   0  0  0  0  0  0  0  0  0  0  0  0
   18.0424   15.2493   28.2745 H   0  0  0  0  0  0  0  0  0  0  0  0
   19.8164   15.2320   28.0224 H   0  0  0  0  0  0  0  0  0  0  0  0
   19.4514   17.7004   30.3792 H   0  0  0  0  0  0  0  0  0  0  0  0
   21.6736   17.7641   31.4676 H   0  0  0  0  0  0  0  0  0  0  0  0
   23.5856   17.8791   27.6374 H   0  0  0  0  0  0  0  0  0  0  0  0
   21.3714   17.7996   26.5050 H   0  0  0  0  0  0  0  0  0  0  0  0
   13.3413   23.3552   26.8638 H   0  0  0  0  0  0  0  0  0  0  0  0
  1  2  2  0  0  0  0
  2  3  1  0  0  0  0
  2  5  1  0  0  0  0
  3  4  1  0  0  0  0
  3 30  1  0  0  0  0
  4 31  1  0  0  0  0
  5  6  1  0  0  0  0
  5 19  1  0  0  0  0
  5 32  1  6  0  0  0
  6  7  1  0  0  0  0
  6 33  1  0  0  0  0
  6 34  1  0  0  0  0
  7  8  1  0  0  0  0
  7 35  1  0  0  0  0
  7 36  1  0  0  0  0
  8  9  1  0  0  0  0
  8 37  1  0  0  0  0
  8 38  1  0  0  0  0
  9 10  1  0  0  0  0
  9 39  1  0  0  0  0
  9 40  1  0  0  0  0
 10 11  1  0  0  0  0
 10 41  1  0  0  0  0
 10 58  1  0  0  0  0
 11 12  1  0  0  0  0
 11 42  1  0  0  0  0
 11 43  1  0  0  0  0
 12 13  2  0  0  0  0
 12 17  1  0  0  0  0
 13 14  1  0  0  0  0
 13 44  1  0  0  0  0
 14 15  2  0  0  0  0
 14 45  1  0  0  0  0
 15 16  1  0  0  0  0
 15 18  1  0  0  0  0
 16 17  2  0  0  0  0
 16 46  1  0  0  0  0
 17 47  1  0  0  0  0
 19 20  1  0  0  0  0
 19 48  1  0  0  0  0
 19 49  1  0  0  0  0
 20 21  1  0  0  0  0
 20 23  1  0  0  0  0
 20 50  1  1  0  0  0
 21 22  1  0  0  0  0
 22 51  1  0  0  0  0
 22 52  1  0  0  0  0
 22 53  1  0  0  0  0
 23 24  2  0  0  0  0
 23 28  1  0  0  0  0
 24 25  1  0  0  0  0
 24 54  1  0  0  0  0
 25 26  2  0  0  0  0
 25 55  1  0  0  0  0
 26 27  1  0  0  0  0
 26 29  1  0  0  0  0
 27 28  2  0  0  0  0
 27 56  1  0  0  0  0
 28 57  1  0  0  0  0
M  CHG  1  10   1
M  END
$$$$
