0N5
 OpenBabel04111918413D

 47 50  0  0  0  0  0  0  0  0999 V2000
   28.8822    3.5556   85.2070 C   0  0  0  0  0  0  0  0  0  0  0  0
   30.1946    3.7131   85.7200 O   0  0  0  0  0  0  0  0  0  0  0  0
   30.2749    3.7743   87.0834 C   0  0  0  0  0  0  0  0  0  0  0  0
   29.1803    3.8093   87.9293 C   0  0  0  0  0  0  0  0  0  0  0  0
   29.3397    3.8517   89.3156 C   0  0  0  0  0  0  0  0  0  0  0  0
   30.6229    3.8620   89.8880 C   0  0  0  0  0  0  0  0  0  0  0  0
   31.7117    3.8250   89.0400 C   0  0  0  0  0  0  0  0  0  0  0  0
   31.5447    3.7908   87.6527 C   0  0  0  0  0  0  0  0  0  0  0  0
   32.6377    3.7736   86.8419 O   0  0  0  0  0  0  0  0  0  0  0  0
   30.8277    3.9138   91.2059 N   0  0  0  0  0  0  0  0  0  0  0  0
   29.7336    3.9659   91.9728 C   0  0  0  0  0  0  0  0  0  0  0  0
   28.4700    3.9631   91.5309 N   0  0  0  0  0  0  0  0  0  0  0  0
   28.2715    3.8965   90.2099 C   0  0  0  0  0  0  0  0  0  0  0  0
   26.9514    3.9288   89.7498 N   0  0  0  0  0  0  0  0  0  0  0  0
   25.7996    3.9967   90.5371 C   0  0  0  0  0  0  0  0  0  0  0  0
   25.6670    3.1986   91.6730 C   0  0  0  0  0  0  0  0  0  0  0  0
   24.5791    3.3445   92.5179 C   0  0  0  0  0  0  0  0  0  0  0  0
   23.5984    4.2819   92.2198 C   0  0  0  0  0  0  0  0  0  0  0  0
   23.7046    5.0726   91.0747 C   0  0  0  0  0  0  0  0  0  0  0  0
   24.8131    4.9384   90.2410 C   0  0  0  0  0  0  0  0  0  0  0  0
   22.4710    4.4252   93.0360 N   0  0  0  0  0  0  0  0  0  0  0  0
   22.5114    4.3152   94.4135 C   0  0  0  0  0  0  0  0  0  0  0  0
   23.5033    4.1154   95.1048 O   0  0  0  0  0  0  0  0  0  0  0  0
   21.2149    4.5411   95.0885 C   0  0  0  0  0  0  0  0  0  0  0  0
   20.0179    4.1488   94.4789 C   0  0  0  0  0  0  0  0  0  0  0  0
   18.8126    4.3496   95.1399 C   0  0  0  0  0  0  0  0  0  0  0  0
   18.8029    4.9383   96.4046 C   0  0  0  0  0  0  0  0  0  0  0  0
   19.9944    5.3289   97.0130 C   0  0  0  0  0  0  0  0  0  0  0  0
   21.2071    5.1265   96.3558 C   0  0  0  0  0  0  0  0  0  0  0  0
   28.9390    3.5129   84.1185 H   0  0  0  0  0  0  0  0  0  0  0  0
   28.2556    4.4147   85.4775 H   0  0  0  0  0  0  0  0  0  0  0  0
   28.4433    2.6151   85.5645 H   0  0  0  0  0  0  0  0  0  0  0  0
   28.1821    3.8126   87.5111 H   0  0  0  0  0  0  0  0  0  0  0  0
   32.7127    3.8462   89.4570 H   0  0  0  0  0  0  0  0  0  0  0  0
   33.1397    2.9765   87.0723 H   0  0  0  0  0  0  0  0  0  0  0  0
   29.8759    4.0054   93.0440 H   0  0  0  0  0  0  0  0  0  0  0  0
   26.7632    3.8632   88.7589 H   0  0  0  0  0  0  0  0  0  0  0  0
   26.4258    2.4584   91.9129 H   0  0  0  0  0  0  0  0  0  0  0  0
   24.4964    2.6981   93.3849 H   0  0  0  0  0  0  0  0  0  0  0  0
   22.9716    5.8420   90.8566 H   0  0  0  0  0  0  0  0  0  0  0  0
   24.9384    5.6094   89.3962 H   0  0  0  0  0  0  0  0  0  0  0  0
   21.6364    4.7867   92.5970 H   0  0  0  0  0  0  0  0  0  0  0  0
   20.0186    3.6633   93.5077 H   0  0  0  0  0  0  0  0  0  0  0  0
   17.8831    4.0333   94.6742 H   0  0  0  0  0  0  0  0  0  0  0  0
   17.8576    5.0857   96.9216 H   0  0  0  0  0  0  0  0  0  0  0  0
   19.9839    5.7823   98.0006 H   0  0  0  0  0  0  0  0  0  0  0  0
   22.1414    5.4292   96.8279 H   0  0  0  0  0  0  0  0  0  0  0  0
  1  2  1  0  0  0  0
  1 30  1  0  0  0  0
  1 31  1  0  0  0  0
  1 32  1  0  0  0  0
  2  3  1  0  0  0  0
  3  4  2  0  0  0  0
  3  8  1  0  0  0  0
  4  5  1  0  0  0  0
  4 33  1  0  0  0  0
  5  6  2  0  0  0  0
  5 13  1  0  0  0  0
  6  7  1  0  0  0  0
  6 10  1  0  0  0  0
  7  8  2  0  0  0  0
  7 34  1  0  0  0  0
  8  9  1  0  0  0  0
  9 35  1  0  0  0  0
 10 11  2  0  0  0  0
 11 12  1  0  0  0  0
 11 36  1  0  0  0  0
 12 13  2  0  0  0  0
 13 14  1  0  0  0  0
 14 15  1  0  0  0  0
 14 37  1  0  0  0  0
 15 16  2  0  0  0  0
 15 20  1  0  0  0  0
 16 17  1  0  0  0  0
 16 38  1  0  0  0  0
 17 18  2  0  0  0  0
 17 39  1  0  0  0  0
 18 19  1  0  0  0  0
 18 21  1  0  0  0  0
 19 20  2  0  0  0  0
 19 40  1  0  0  0  0
 20 41  1  0  0  0  0
 21 22  1  0  0  0  0
 21 42  1  0  0  0  0
 22 23  2  0  0  0  0
 22 24  1  0  0  0  0
 24 25  2  0  0  0  0
 24 29  1  0  0  0  0
 25 26  1  0  0  0  0
 25 43  1  0  0  0  0
 26 27  2  0  0  0  0
 26 44  1  0  0  0  0
 27 28  1  0  0  0  0
 27 45  1  0  0  0  0
 28 29  2  0  0  0  0
 28 46  1  0  0  0  0
 29 47  1  0  0  0  0
M  END
$$$$
