0NU
 OpenBabel04111918423D

 39 42  0  0  1  0  0  0  0  0999 V2000
   -1.6258  -52.1386  -18.1195 N   0  0  0  0  0  0  0  0  0  0  0  0
   -1.2051  -51.0547  -18.3225 C   0  0  0  0  0  0  0  0  0  0  0  0
   -0.5792  -49.7760  -18.5773 C   0  0  0  0  0  0  0  0  0  0  0  0
   -0.9646  -49.2606  -19.9757 C   0  0  0  0  0  0  0  0  0  0  0  0
   -1.4189  -50.0036  -20.8433 O   0  0  0  0  0  0  0  0  0  0  0  0
   -0.7708  -47.9094  -20.2315 N   0  0  0  0  0  0  0  0  0  0  0  0
   -0.2836  -46.9891  -19.2324 C   0  0  0  0  0  0  0  0  0  0  0  0
   -1.3639  -46.0039  -18.8391 C   0  0  0  0  0  0  0  0  0  0  0  0
   -1.8961  -45.2790  -20.0726 C   0  0  0  0  0  0  0  0  0  0  0  0
   -1.1717  -47.2684  -21.4903 C   0  0  0  0  0  0  0  0  0  0  0  0
   -2.2759  -46.2595  -21.1967 C   0  0  2  0  0  0  0  0  0  0  0  0
   -2.7215  -45.5514  -22.3778 N   0  3  0  0  0  0  0  0  0  0  0  0
   -3.9401  -45.0075  -22.5465 C   0  0  0  0  0  0  0  0  0  0  0  0
   -5.0900  -44.9429  -21.7871 C   0  0  0  0  0  0  0  0  0  0  0  0
   -5.5302  -45.4641  -20.5231 C   0  0  0  0  0  0  0  0  0  0  0  0
   -1.9600  -45.2460  -23.5044 C   0  0  0  0  0  0  0  0  0  0  0  0
   -2.6416  -44.5233  -24.3628 N   0  0  0  0  0  0  0  0  0  0  0  0
   -3.8701  -44.3591  -23.7719 C   0  0  0  0  0  0  0  0  0  0  0  0
   -4.9875  -43.6429  -24.2056 C   0  0  0  0  0  0  0  0  0  0  0  0
   -6.1315  -43.5347  -23.4666 N   0  0  0  0  0  0  0  0  0  0  0  0
   -6.1356  -44.1912  -22.2930 C   0  0  0  0  0  0  0  0  0  0  0  0
   -7.1834  -44.2206  -21.4016 N   0  3  0  0  0  0  0  0  0  0  0  0
   -6.8284  -45.0095  -20.3279 C   0  0  0  0  0  0  0  0  0  0  0  0
    0.5135  -49.9061  -18.5028 H   0  0  0  0  0  0  0  0  0  0  0  0
   -0.8952  -49.0750  -17.7901 H   0  0  0  0  0  0  0  0  0  0  0  0
    0.5742  -46.4645  -19.6527 H   0  0  0  0  0  0  0  0  0  0  0  0
    0.0473  -47.5390  -18.3605 H   0  0  0  0  0  0  0  0  0  0  0  0
   -0.9451  -45.2777  -18.1350 H   0  0  0  0  0  0  0  0  0  0  0  0
   -2.1878  -46.5374  -18.3458 H   0  0  0  0  0  0  0  0  0  0  0  0
   -1.1322  -44.5813  -20.4375 H   0  0  0  0  0  0  0  0  0  0  0  0
   -2.7827  -44.6981  -19.7873 H   0  0  0  0  0  0  0  0  0  0  0  0
   -1.5333  -47.9964  -22.2285 H   0  0  0  0  0  0  0  0  0  0  0  0
   -0.2978  -46.7503  -21.9120 H   0  0  0  0  0  0  0  0  0  0  0  0
   -3.1272  -46.8404  -20.8292 H   0  0  0  0  0  0  0  0  0  0  0  0
   -5.0263  -46.0978  -19.7964 H   0  0  0  0  0  0  0  0  0  0  0  0
   -0.9241  -45.5547  -23.6759 H   0  0  0  0  0  0  0  0  0  0  0  0
   -4.9660  -43.1298  -25.1619 H   0  0  0  0  0  0  0  0  0  0  0  0
   -8.0657  -43.7345  -21.5408 H   0  0  0  0  0  0  0  0  0  0  0  0
   -7.5068  -45.1984  -19.4985 H   0  0  0  0  0  0  0  0  0  0  0  0
  1  2  3  0  0  0  0
  2  3  1  0  0  0  0
  3  4  1  0  0  0  0
  3 24  1  0  0  0  0
  3 25  1  0  0  0  0
  4  5  2  0  0  0  0
  4  6  1  0  0  0  0
  6  7  1  0  0  0  0
  6 10  1  0  0  0  0
  7  8  1  0  0  0  0
  7 26  1  0  0  0  0
  7 27  1  0  0  0  0
  8  9  1  0  0  0  0
  8 28  1  0  0  0  0
  8 29  1  0  0  0  0
  9 11  1  0  0  0  0
  9 30  1  0  0  0  0
  9 31  1  0  0  0  0
 10 11  1  0  0  0  0
 10 32  1  0  0  0  0
 10 33  1  0  0  0  0
 11 12  1  0  0  0  0
 11 34  1  1  0  0  0
 12 13  1  0  0  0  0
 12 16  2  0  0  0  0
 13 14  2  0  0  0  0
 13 18  1  0  0  0  0
 14 15  1  0  0  0  0
 14 21  1  0  0  0  0
 15 23  2  0  0  0  0
 15 35  1  0  0  0  0
 16 17  1  0  0  0  0
 16 36  1  0  0  0  0
 17 18  1  0  0  0  0
 18 19  2  0  0  0  0
 19 20  1  0  0  0  0
 19 37  1  0  0  0  0
 20 21  1  0  0  0  0
 21 22  2  0  0  0  0
 22 23  1  0  0  0  0
 22 38  1  0  0  0  0
 23 39  1  0  0  0  0
M  CHG  2  12   1  22   1
M  END
$$$$
