0Q2
 OpenBabel04111918443D

 38 41  0  0  1  0  0  0  0  0999 V2000
   10.2223   56.7710   -0.4853 C   0  0  0  0  0  0  0  0  0  0  0  0
    9.1063   57.7339   -0.2542 C   0  0  0  0  0  0  0  0  0  0  0  0
    9.1520   58.9987   -0.6232 N   0  0  0  0  0  0  0  0  0  0  0  0
    7.9539   59.5380   -0.2452 C   0  0  0  0  0  0  0  0  0  0  0  0
    7.4529   60.8473   -0.3859 C   0  0  0  0  0  0  0  0  0  0  0  0
    6.2206   61.2186    0.0644 N   0  0  0  0  0  0  0  0  0  0  0  0
    5.5124   60.2358    0.6442 C   0  0  0  0  0  0  0  0  0  0  0  0
    5.9224   58.9287    0.8117 C   0  0  0  0  0  0  0  0  0  0  0  0
    7.1660   58.5772    0.3660 C   0  0  0  0  0  0  0  0  0  0  0  0
    7.8894   57.4319    0.3695 N   0  3  0  0  0  0  0  0  0  0  0  0
    7.5561   56.1064    0.8794 C   0  0  2  0  0  0  0  0  0  0  0  0
    6.4304   55.4397    0.0784 C   0  0  0  0  0  0  0  0  0  0  0  0
    6.1774   54.0191    0.5639 C   0  0  0  0  0  0  0  0  0  0  0  0
    5.9390   53.9608    2.0727 C   0  0  0  0  0  0  0  0  0  0  0  0
    7.0145   54.6729    2.8984 C   0  0  2  0  0  0  0  0  0  0  0  0
    7.3295   56.0781    2.3995 C   0  0  0  0  0  0  0  0  0  0  0  0
    8.2145   53.9064    2.8648 O   0  0  0  0  0  0  0  0  0  0  0  0
    4.8703   58.2128    1.4457 C   0  0  0  0  0  0  0  0  0  0  0  0
    3.8582   59.1311    1.6707 C   0  0  0  0  0  0  0  0  0  0  0  0
    4.2611   60.3494    1.1735 N   0  3  0  0  0  0  0  0  0  0  0  0
   11.0517   57.2653   -1.0023 H   0  0  0  0  0  0  0  0  0  0  0  0
    9.8986   55.9339   -1.1124 H   0  0  0  0  0  0  0  0  0  0  0  0
   10.6092   56.3843    0.4632 H   0  0  0  0  0  0  0  0  0  0  0  0
    8.0427   61.6175   -0.8633 H   0  0  0  0  0  0  0  0  0  0  0  0
    8.4439   55.4833    0.7057 H   0  0  0  0  0  0  0  0  0  0  0  0
    6.6826   55.4256   -0.9898 H   0  0  0  0  0  0  0  0  0  0  0  0
    5.4980   56.0023    0.1464 H   0  0  0  0  0  0  0  0  0  0  0  0
    7.0314   53.3859    0.2956 H   0  0  0  0  0  0  0  0  0  0  0  0
    5.3046   53.6098    0.0411 H   0  0  0  0  0  0  0  0  0  0  0  0
    5.8873   52.9060    2.3686 H   0  0  0  0  0  0  0  0  0  0  0  0
    4.9624   54.4093    2.2915 H   0  0  0  0  0  0  0  0  0  0  0  0
    6.6847   54.7190    3.9421 H   0  0  0  0  0  0  0  0  0  0  0  0
    6.5186   56.7367    2.7026 H   0  0  0  0  0  0  0  0  0  0  0  0
    8.2245   56.4677    2.9002 H   0  0  0  0  0  0  0  0  0  0  0  0
    8.8248   54.3012    3.5147 H   0  0  0  0  0  0  0  0  0  0  0  0
    4.7939   57.1803    1.7284 H   0  0  0  0  0  0  0  0  0  0  0  0
    2.8888   59.0183    2.1394 H   0  0  0  0  0  0  0  0  0  0  0  0
    3.7286   61.2046    1.1803 H   0  0  0  0  0  0  0  0  0  0  0  0
  1  2  1  0  0  0  0
  1 21  1  0  0  0  0
  1 22  1  0  0  0  0
  1 23  1  0  0  0  0
  2  3  1  0  0  0  0
  2 10  2  0  0  0  0
  3  4  1  0  0  0  0
  4  5  2  0  0  0  0
  4  9  1  0  0  0  0
  5  6  1  0  0  0  0
  5 24  1  0  0  0  0
  6  7  1  0  0  0  0
  7  8  1  0  0  0  0
  7 20  2  0  0  0  0
  8  9  2  0  0  0  0
  8 18  1  0  0  0  0
  9 10  1  0  0  0  0
 10 11  1  0  0  0  0
 11 12  1  0  0  0  0
 11 16  1  0  0  0  0
 11 25  1  6  0  0  0
 12 13  1  0  0  0  0
 12 26  1  0  0  0  0
 12 27  1  0  0  0  0
 13 14  1  0  0  0  0
 13 28  1  0  0  0  0
 13 29  1  0  0  0  0
 14 15  1  0  0  0  0
 14 30  1  0  0  0  0
 14 31  1  0  0  0  0
 15 16  1  0  0  0  0
 15 17  1  0  0  0  0
 15 32  1  1  0  0  0
 16 33  1  0  0  0  0
 16 34  1  0  0  0  0
 17 35  1  0  0  0  0
 18 19  2  0  0  0  0
 18 36  1  0  0  0  0
 19 20  1  0  0  0  0
 19 37  1  0  0  0  0
 20 38  1  0  0  0  0
M  CHG  2  10   1  20   1
M  END
$$$$
