0RY
 OpenBabel04111918493D

 26 26  0  0  0  0  0  0  0  0999 V2000
    2.9849   12.6431    4.9085 O   0  0  0  0  0  0  0  0  0  0  0  0
    4.0042   13.3624    5.0862 C   0  0  0  0  0  0  0  0  0  0  0  0
    4.3671   14.0129    6.1031 O   0  0  0  0  0  0  0  0  0  0  0  0
    4.9552   13.4777    3.8982 C   0  0  0  0  0  0  0  0  0  0  0  0
    4.9769   12.8971    2.6877 C   0  0  0  0  0  0  0  0  0  0  0  0
    4.1040   11.8898    2.0006 C   0  0  0  0  0  0  0  0  0  0  0  0
    4.5057   11.4041    0.9408 O   0  0  0  0  0  0  0  0  0  0  0  0
    2.9503   11.5420    2.6414 N   0  0  0  0  0  0  0  0  0  0  0  0
    2.2033   10.3844    2.3651 C   0  0  0  0  0  0  0  0  0  0  0  0
    1.8982    9.9417    1.0757 C   0  0  0  0  0  0  0  0  0  0  0  0
    1.7556    9.6708    3.4792 C   0  0  0  0  0  0  0  0  0  0  0  0
    1.0248    8.4923    3.3160 C   0  0  0  0  0  0  0  0  0  0  0  0
    0.6912    8.0641    2.0313 C   0  0  0  0  0  0  0  0  0  0  0  0
    1.1095    8.7889    0.9048 C   0  0  0  0  0  0  0  0  0  0  0  0
    0.6552    8.3110   -0.4223 C   0  0  0  0  0  0  0  0  0  0  0  0
   -0.3959    7.7035   -0.5687 O   0  0  0  0  0  0  0  0  0  0  0  0
    1.4867    8.5240   -1.4884 N   0  0  0  0  0  0  0  0  0  0  0  0
    5.7729   14.1638    4.1272 H   0  0  0  0  0  0  0  0  0  0  0  0
    5.8191   13.1539    2.0484 H   0  0  0  0  0  0  0  0  0  0  0  0
    2.8424   11.9329    3.5917 H   0  0  0  0  0  0  0  0  0  0  0  0
    2.2121   10.5314    0.2211 H   0  0  0  0  0  0  0  0  0  0  0  0
    2.0146   10.0076    4.4791 H   0  0  0  0  0  0  0  0  0  0  0  0
    0.7257    7.9243    4.1870 H   0  0  0  0  0  0  0  0  0  0  0  0
    0.0969    7.1611    1.9093 H   0  0  0  0  0  0  0  0  0  0  0  0
    1.2189    8.1348   -2.3775 H   0  0  0  0  0  0  0  0  0  0  0  0
    2.4154    8.9135   -1.3806 H   0  0  0  0  0  0  0  0  0  0  0  0
  1  2  2  0  0  0  0
  2  3  1  0  0  0  0
  2  4  1  0  0  0  0
  4  5  2  0  0  0  0
  4 18  1  0  0  0  0
  5  6  1  0  0  0  0
  5 19  1  0  0  0  0
  6  7  2  0  0  0  0
  6  8  1  0  0  0  0
  8  9  1  0  0  0  0
  8 20  1  0  0  0  0
  9 10  2  0  0  0  0
  9 11  1  0  0  0  0
 10 14  1  0  0  0  0
 10 21  1  0  0  0  0
 11 12  2  0  0  0  0
 11 22  1  0  0  0  0
 12 13  1  0  0  0  0
 12 23  1  0  0  0  0
 13 14  2  0  0  0  0
 13 24  1  0  0  0  0
 14 15  1  0  0  0  0
 15 16  2  0  0  0  0
 15 17  1  0  0  0  0
 17 25  1  0  0  0  0
 17 26  1  0  0  0  0
M  END
$$$$
