0S3
 OpenBabel04111918473D

 56 57  0  0  1  0  0  0  0  0999 V2000
    9.1571   33.0894   73.8059 C   0  0  0  0  0  0  0  0  0  0  0  0
    7.7778   33.4514   74.0831 C   0  0  0  0  0  0  0  0  0  0  0  0
    6.9634   33.0590   73.0236 C   0  0  0  0  0  0  0  0  0  0  0  0
    7.8351   32.2765   71.7772 S   0  0  0  0  0  0  0  0  0  0  0  0
    9.3047   32.4539   72.5921 C   0  0  0  0  0  0  0  0  0  0  0  0
   10.5125   31.9643   72.0167 C   0  0  0  0  0  0  0  0  0  0  0  0
   11.4648   31.5233   71.4486 C   0  0  0  0  0  0  0  0  0  0  0  0
   12.6400   31.0009   70.7244 C   0  0  0  0  0  0  0  0  0  0  0  0
   13.8953   31.6138   71.3428 C   0  0  0  0  0  0  0  0  0  0  0  0
   12.6946   29.4760   70.8335 C   0  0  0  0  0  0  0  0  0  0  0  0
   12.5634   31.3945   69.2479 C   0  0  0  0  0  0  0  0  0  0  0  0
    7.3516   34.1247   75.2551 N   0  0  0  0  0  0  0  0  0  0  0  0
    7.2714   35.5273   75.3559 C   0  0  0  0  0  0  0  0  0  0  0  0
    6.9406   33.3883   76.4014 N   0  0  0  0  0  0  0  0  0  0  0  0
    7.8118   36.3165   74.1629 C   0  0  1  0  0  0  0  0  0  0  0  0
    6.9299   36.1277   76.3836 O   0  0  0  0  0  0  0  0  0  0  0  0
    6.9542   37.5405   73.8441 C   0  0  0  0  0  0  0  0  0  0  0  0
    7.5646   38.3453   72.6951 C   0  0  0  0  0  0  0  0  0  0  0  0
    8.9891   38.7948   73.0376 C   0  0  1  0  0  0  0  0  0  0  0  0
    9.8641   37.5907   73.3930 C   0  0  0  0  0  0  0  0  0  0  0  0
    9.2456   36.7410   74.4945 C   0  0  0  0  0  0  0  0  0  0  0  0
    9.6190   39.5736   71.8877 C   0  0  0  0  0  0  0  0  0  0  0  0
    5.6066   32.8148   76.2769 C   0  0  0  0  0  0  0  0  0  0  0  0
    7.9429   32.4718   76.8948 C   0  0  0  0  0  0  0  0  0  0  0  0
    5.5050   33.2801   72.8596 C   0  0  0  0  0  0  0  0  0  0  0  0
    4.9094   32.5814   71.9848 O   0  0  0  0  0  0  0  0  0  0  0  0
    4.9694   34.1703   73.5909 O   0  0  0  0  0  0  0  0  0  0  0  0
    9.9909   33.2870   74.4676 H   0  0  0  0  0  0  0  0  0  0  0  0
   14.7990   31.2479   70.8458 H   0  0  0  0  0  0  0  0  0  0  0  0
   13.9644   31.3693   72.4089 H   0  0  0  0  0  0  0  0  0  0  0  0
   13.8749   32.7072   71.2529 H   0  0  0  0  0  0  0  0  0  0  0  0
   11.8022   29.0185   70.3905 H   0  0  0  0  0  0  0  0  0  0  0  0
   12.7498   29.1576   71.8802 H   0  0  0  0  0  0  0  0  0  0  0  0
   13.5720   29.0768   70.3106 H   0  0  0  0  0  0  0  0  0  0  0  0
   12.5231   32.4839   69.1360 H   0  0  0  0  0  0  0  0  0  0  0  0
   11.6687   30.9747   68.7746 H   0  0  0  0  0  0  0  0  0  0  0  0
   13.4407   31.0297   68.6997 H   0  0  0  0  0  0  0  0  0  0  0  0
    7.8232   35.6944   73.2674 H   0  0  0  0  0  0  0  0  0  0  0  0
    6.8690   38.1834   74.7282 H   0  0  0  0  0  0  0  0  0  0  0  0
    5.9408   37.2226   73.5735 H   0  0  0  0  0  0  0  0  0  0  0  0
    6.9384   39.2209   72.4890 H   0  0  0  0  0  0  0  0  0  0  0  0
    7.5758   37.7285   71.7865 H   0  0  0  0  0  0  0  0  0  0  0  0
    8.9388   39.4604   73.9089 H   0  0  0  0  0  0  0  0  0  0  0  0
   10.8506   37.9398   73.7197 H   0  0  0  0  0  0  0  0  0  0  0  0
   10.0125   36.9662   72.5030 H   0  0  0  0  0  0  0  0  0  0  0  0
    9.8694   35.8570   74.6617 H   0  0  0  0  0  0  0  0  0  0  0  0
    9.2486   37.3154   75.4306 H   0  0  0  0  0  0  0  0  0  0  0  0
    9.0042   40.4392   71.6227 H   0  0  0  0  0  0  0  0  0  0  0  0
    9.7296   38.9431   70.9989 H   0  0  0  0  0  0  0  0  0  0  0  0
   10.6130   39.9371   72.1722 H   0  0  0  0  0  0  0  0  0  0  0  0
    5.3425   32.2623   77.1875 H   0  0  0  0  0  0  0  0  0  0  0  0
    5.5185   32.1216   75.4363 H   0  0  0  0  0  0  0  0  0  0  0  0
    4.8545   33.6054   76.1719 H   0  0  0  0  0  0  0  0  0  0  0  0
    7.5719   31.9223   77.7661 H   0  0  0  0  0  0  0  0  0  0  0  0
    8.8198   33.0416   77.2221 H   0  0  0  0  0  0  0  0  0  0  0  0
    8.2541   31.7461   76.1404 H   0  0  0  0  0  0  0  0  0  0  0  0
  1  2  1  0  0  0  0
  1  5  2  0  0  0  0
  1 28  1  0  0  0  0
  2  3  2  0  0  0  0
  2 12  1  0  0  0  0
  3  4  1  0  0  0  0
  3 25  1  0  0  0  0
  4  5  1  0  0  0  0
  5  6  1  0  0  0  0
  6  7  3  0  0  0  0
  7  8  1  0  0  0  0
  8  9  1  0  0  0  0
  8 10  1  0  0  0  0
  8 11  1  0  0  0  0
  9 29  1  0  0  0  0
  9 30  1  0  0  0  0
  9 31  1  0  0  0  0
 10 32  1  0  0  0  0
 10 33  1  0  0  0  0
 10 34  1  0  0  0  0
 11 35  1  0  0  0  0
 11 36  1  0  0  0  0
 11 37  1  0  0  0  0
 12 13  1  0  0  0  0
 12 14  1  0  0  0  0
 13 15  1  0  0  0  0
 13 16  2  0  0  0  0
 14 23  1  0  0  0  0
 14 24  1  0  0  0  0
 15 17  1  0  0  0  0
 15 21  1  0  0  0  0
 15 38  1  6  0  0  0
 17 18  1  0  0  0  0
 17 39  1  0  0  0  0
 17 40  1  0  0  0  0
 18 19  1  0  0  0  0
 18 41  1  0  0  0  0
 18 42  1  0  0  0  0
 19 20  1  0  0  0  0
 19 22  1  0  0  0  0
 19 43  1  1  0  0  0
 20 21  1  0  0  0  0
 20 44  1  0  0  0  0
 20 45  1  0  0  0  0
 21 46  1  0  0  0  0
 21 47  1  0  0  0  0
 22 48  1  0  0  0  0
 22 49  1  0  0  0  0
 22 50  1  0  0  0  0
 23 51  1  0  0  0  0
 23 52  1  0  0  0  0
 23 53  1  0  0  0  0
 24 54  1  0  0  0  0
 24 55  1  0  0  0  0
 24 56  1  0  0  0  0
 25 26  2  0  0  0  0
 25 27  1  0  0  0  0
M  END
$$$$
