0SS
 OpenBabel04111918513D

 97101  0  0  0  0  0  0  0  0999 V2000
   40.7366   57.9013  145.4668 O   0  0  0  0  0  0  0  0  0  0  0  0
   39.7032   58.4953  145.7531 C   0  0  0  0  0  0  0  0  0  0  0  0
   38.9119   58.2789  146.8546 N   0  0  0  0  0  0  0  0  0  0  0  0
   39.2873   57.3752  147.8499 C   0  0  0  0  0  0  0  0  0  0  0  0
   38.4298   56.8561  148.8207 N   0  3  0  0  0  0  0  0  0  0  0  0
   37.0114   56.9560  148.8849 C   0  0  0  0  0  0  0  0  0  0  0  0
   36.2410   57.0228  147.7182 C   0  0  0  0  0  0  0  0  0  0  0  0
   34.8558   57.0964  147.7883 C   0  0  0  0  0  0  0  0  0  0  0  0
   34.2022   57.1112  149.0307 C   0  0  0  0  0  0  0  0  0  0  0  0
   32.7048   57.1649  149.0925 C   0  0  0  0  0  0  0  0  0  0  0  0
   34.9742   57.0325  150.2046 C   0  0  0  0  0  0  0  0  0  0  0  0
   36.3717   56.9371  150.1292 C   0  0  0  0  0  0  0  0  0  0  0  0
   39.1027   56.1122  149.7350 N   0  0  0  0  0  0  0  0  0  0  0  0
   40.3591   56.0296  149.2756 C   0  0  0  0  0  0  0  0  0  0  0  0
   41.4316   55.2188  149.9952 C   0  0  0  0  0  0  0  0  0  0  0  0
   42.4124   54.5617  148.9942 C   0  0  0  0  0  0  0  0  0  0  0  0
   40.8254   54.0842  150.8464 C   0  0  0  0  0  0  0  0  0  0  0  0
   42.2367   56.1553  150.9140 C   0  0  0  0  0  0  0  0  0  0  0  0
   40.5298   56.8579  148.1450 C   0  0  0  0  0  0  0  0  0  0  0  0
   39.1766   59.4356  144.8803 N   0  0  0  0  0  0  0  0  0  0  0  0
   40.1172   60.0682  143.9550 C   0  0  0  0  0  0  0  0  0  0  0  0
   39.5191   60.3360  142.5736 C   0  0  0  0  0  0  0  0  0  0  0  0
   38.7036   59.1485  142.0724 N   0  3  0  0  0  0  0  0  0  0  0  0
   37.8968   59.5577  140.8398 C   0  0  0  0  0  0  0  0  0  0  0  0
   37.2002   58.3672  140.1539 C   0  0  0  0  0  0  0  0  0  0  0  0
   39.5552   57.8993  141.8421 C   0  0  0  0  0  0  0  0  0  0  0  0
   38.6617   56.7663  141.3150 C   0  0  0  0  0  0  0  0  0  0  0  0
   38.0525   57.1746  140.0560 N   0  0  0  0  0  0  0  0  0  0  0  0
   38.2682   56.6461  138.8056 C   0  0  0  0  0  0  0  0  0  0  0  0
   37.7560   57.0868  137.7891 O   0  0  0  0  0  0  0  0  0  0  0  0
   39.1227   55.5043  138.7353 N   0  0  0  0  0  0  0  0  0  0  0  0
   39.3904   54.9998  137.4589 C   0  0  0  0  0  0  0  0  0  0  0  0
   39.1044   53.7291  137.0278 C   0  0  0  0  0  0  0  0  0  0  0  0
   39.2854   53.7773  135.6143 C   0  0  0  0  0  0  0  0  0  0  0  0
   39.1035   52.6581  134.5904 C   0  0  0  0  0  0  0  0  0  0  0  0
   40.4675   51.9923  134.3243 C   0  0  0  0  0  0  0  0  0  0  0  0
   38.5487   53.2047  133.2566 C   0  0  0  0  0  0  0  0  0  0  0  0
   38.1272   51.5701  135.0877 C   0  0  0  0  0  0  0  0  0  0  0  0
   39.6859   54.9980  135.2167 N   0  0  0  0  0  0  0  0  0  0  0  0
   39.8361   55.7031  136.3539 N   0  3  0  0  0  0  0  0  0  0  0  0
   40.4589   56.9698  136.3875 C   0  0  0  0  0  0  0  0  0  0  0  0
   41.4441   57.2278  137.3521 C   0  0  0  0  0  0  0  0  0  0  0  0
   40.0264   57.9741  135.5227 C   0  0  0  0  0  0  0  0  0  0  0  0
   40.5504   59.2617  135.6632 C   0  0  0  0  0  0  0  0  0  0  0  0
   41.5425   59.5337  136.6193 C   0  0  0  0  0  0  0  0  0  0  0  0
   42.1285   60.9124  136.7219 C   0  0  0  0  0  0  0  0  0  0  0  0
   41.9968   58.5037  137.4509 C   0  0  0  0  0  0  0  0  0  0  0  0
   38.0296   58.7587  146.9705 H   0  0  0  0  0  0  0  0  0  0  0  0
   36.6974   56.9301  146.7353 H   0  0  0  0  0  0  0  0  0  0  0  0
   34.2597   57.1109  146.8762 H   0  0  0  0  0  0  0  0  0  0  0  0
   32.3441   57.2073  150.1263 H   0  0  0  0  0  0  0  0  0  0  0  0
   32.2770   56.2740  148.6220 H   0  0  0  0  0  0  0  0  0  0  0  0
   32.3367   58.0552  148.5722 H   0  0  0  0  0  0  0  0  0  0  0  0
   34.4942   57.0337  151.1723 H   0  0  0  0  0  0  0  0  0  0  0  0
   36.9411   56.8668  151.0527 H   0  0  0  0  0  0  0  0  0  0  0  0
   43.1702   53.9663  149.5189 H   0  0  0  0  0  0  0  0  0  0  0  0
   42.9498   55.3063  148.3958 H   0  0  0  0  0  0  0  0  0  0  0  0
   41.8909   53.8933  148.2988 H   0  0  0  0  0  0  0  0  0  0  0  0
   40.1142   54.4669  151.5864 H   0  0  0  0  0  0  0  0  0  0  0  0
   41.6055   53.5420  151.3941 H   0  0  0  0  0  0  0  0  0  0  0  0
   40.2952   53.3573  150.2194 H   0  0  0  0  0  0  0  0  0  0  0  0
   42.7146   56.9585  150.3402 H   0  0  0  0  0  0  0  0  0  0  0  0
   43.0262   55.6116  151.4445 H   0  0  0  0  0  0  0  0  0  0  0  0
   41.5885   56.6262  151.6614 H   0  0  0  0  0  0  0  0  0  0  0  0
   41.4624   57.0765  147.6426 H   0  0  0  0  0  0  0  0  0  0  0  0
   38.4355   60.0106  145.2619 H   0  0  0  0  0  0  0  0  0  0  0  0
   41.0214   59.4603  143.8323 H   0  0  0  0  0  0  0  0  0  0  0  0
   40.4397   61.0088  144.4128 H   0  0  0  0  0  0  0  0  0  0  0  0
   40.2925   60.5559  141.8318 H   0  0  0  0  0  0  0  0  0  0  0  0
   38.8252   61.1819  142.6339 H   0  0  0  0  0  0  0  0  0  0  0  0
   38.5994   60.0406  140.1524 H   0  0  0  0  0  0  0  0  0  0  0  0
   37.1544   60.2904  141.1760 H   0  0  0  0  0  0  0  0  0  0  0  0
   36.8589   58.6990  139.1668 H   0  0  0  0  0  0  0  0  0  0  0  0
   36.3075   58.0759  140.7183 H   0  0  0  0  0  0  0  0  0  0  0  0
   40.0059   57.6118  142.7932 H   0  0  0  0  0  0  0  0  0  0  0  0
   40.3291   58.1675  141.1149 H   0  0  0  0  0  0  0  0  0  0  0  0
   37.8414   56.5743  142.0180 H   0  0  0  0  0  0  0  0  0  0  0  0
   39.2327   55.8435  141.2166 H   0  0  0  0  0  0  0  0  0  0  0  0
   39.3802   54.9319  139.5203 H   0  0  0  0  0  0  0  0  0  0  0  0
   38.7106   52.9088  137.6101 H   0  0  0  0  0  0  0  0  0  0  0  0
   40.3778   51.1794  133.5947 H   0  0  0  0  0  0  0  0  0  0  0  0
   40.8896   51.5726  135.2459 H   0  0  0  0  0  0  0  0  0  0  0  0
   41.1942   52.7122  133.9303 H   0  0  0  0  0  0  0  0  0  0  0  0
   37.5634   53.6651  133.3969 H   0  0  0  0  0  0  0  0  0  0  0  0
   38.4420   52.4066  132.5128 H   0  0  0  0  0  0  0  0  0  0  0  0
   39.2087   53.9647  132.8229 H   0  0  0  0  0  0  0  0  0  0  0  0
   38.4753   51.1043  136.0164 H   0  0  0  0  0  0  0  0  0  0  0  0
   38.0199   50.7680  134.3467 H   0  0  0  0  0  0  0  0  0  0  0  0
   37.1290   51.9820  135.2754 H   0  0  0  0  0  0  0  0  0  0  0  0
   41.8392   56.4332  137.9807 H   0  0  0  0  0  0  0  0  0  0  0  0
   39.2449   57.7826  134.7892 H   0  0  0  0  0  0  0  0  0  0  0  0
   40.1849   60.0550  135.0126 H   0  0  0  0  0  0  0  0  0  0  0  0
   42.9132   60.9560  137.4850 H   0  0  0  0  0  0  0  0  0  0  0  0
   41.3523   61.6325  136.9995 H   0  0  0  0  0  0  0  0  0  0  0  0
   42.5742   61.2065  135.7668 H   0  0  0  0  0  0  0  0  0  0  0  0
   42.8043   58.6848  138.1575 H   0  0  0  0  0  0  0  0  0  0  0  0
   38.0526   58.9180  142.8380 H   0  0  0  0  0  0  0  0  0  0  0  0
  1  2  2  0  0  0  0
  2  3  1  0  0  0  0
  2 20  1  0  0  0  0
  3  4  1  0  0  0  0
  3 48  1  0  0  0  0
  4  5  2  0  0  0  0
  4 19  1  0  0  0  0
  5  6  1  0  0  0  0
  5 13  1  0  0  0  0
  6  7  2  0  0  0  0
  6 12  1  0  0  0  0
  7  8  1  0  0  0  0
  7 49  1  0  0  0  0
  8  9  2  0  0  0  0
  8 50  1  0  0  0  0
  9 10  1  0  0  0  0
  9 11  1  0  0  0  0
 10 51  1  0  0  0  0
 10 52  1  0  0  0  0
 10 53  1  0  0  0  0
 11 12  2  0  0  0  0
 11 54  1  0  0  0  0
 12 55  1  0  0  0  0
 13 14  1  0  0  0  0
 14 15  1  0  0  0  0
 14 19  2  0  0  0  0
 15 16  1  0  0  0  0
 15 17  1  0  0  0  0
 15 18  1  0  0  0  0
 16 56  1  0  0  0  0
 16 57  1  0  0  0  0
 16 58  1  0  0  0  0
 17 59  1  0  0  0  0
 17 60  1  0  0  0  0
 17 61  1  0  0  0  0
 18 62  1  0  0  0  0
 18 63  1  0  0  0  0
 18 64  1  0  0  0  0
 19 65  1  0  0  0  0
 20 21  1  0  0  0  0
 20 66  1  0  0  0  0
 21 22  1  0  0  0  0
 21 67  1  0  0  0  0
 21 68  1  0  0  0  0
 22 23  1  0  0  0  0
 22 69  1  0  0  0  0
 22 70  1  0  0  0  0
 23 24  1  0  0  0  0
 23 26  1  0  0  0  0
 23 97  1  0  0  0  0
 24 25  1  0  0  0  0
 24 71  1  0  0  0  0
 24 72  1  0  0  0  0
 25 28  1  0  0  0  0
 25 73  1  0  0  0  0
 25 74  1  0  0  0  0
 26 27  1  0  0  0  0
 26 75  1  0  0  0  0
 26 76  1  0  0  0  0
 27 28  1  0  0  0  0
 27 77  1  0  0  0  0
 27 78  1  0  0  0  0
 28 29  1  0  0  0  0
 29 30  2  0  0  0  0
 29 31  1  0  0  0  0
 31 32  1  0  0  0  0
 31 79  1  0  0  0  0
 32 33  1  0  0  0  0
 32 40  2  0  0  0  0
 33 34  2  0  0  0  0
 33 80  1  0  0  0  0
 34 35  1  0  0  0  0
 34 39  1  0  0  0  0
 35 36  1  0  0  0  0
 35 37  1  0  0  0  0
 35 38  1  0  0  0  0
 36 81  1  0  0  0  0
 36 82  1  0  0  0  0
 36 83  1  0  0  0  0
 37 84  1  0  0  0  0
 37 85  1  0  0  0  0
 37 86  1  0  0  0  0
 38 87  1  0  0  0  0
 38 88  1  0  0  0  0
 38 89  1  0  0  0  0
 39 40  1  0  0  0  0
 40 41  1  0  0  0  0
 41 42  2  0  0  0  0
 41 43  1  0  0  0  0
 42 47  1  0  0  0  0
 42 90  1  0  0  0  0
 43 44  2  0  0  0  0
 43 91  1  0  0  0  0
 44 45  1  0  0  0  0
 44 92  1  0  0  0  0
 45 46  1  0  0  0  0
 45 47  2  0  0  0  0
 46 93  1  0  0  0  0
 46 94  1  0  0  0  0
 46 95  1  0  0  0  0
 47 96  1  0  0  0  0
M  CHG  3   5   1  23   1  40   1
M  END
$$$$
