0TU
 OpenBabel04111918223D

 18 19  0  0  0  0  0  0  0  0999 V2000
  -20.6904  -45.1505  -12.4003 Cl  0  0  0  0  0  0  0  0  0  0  0  0
  -19.1888  -50.7809  -11.4752 N   0  3  0  0  0  0  0  0  0  0  0  0
  -19.5323  -49.4375  -11.6854 C   0  0  0  0  0  0  0  0  0  0  0  0
  -18.5500  -48.4494  -11.6488 C   0  0  0  0  0  0  0  0  0  0  0  0
  -18.9173  -47.1188  -11.8715 C   0  0  0  0  0  0  0  0  0  0  0  0
  -20.2497  -46.7867  -12.1175 C   0  0  0  0  0  0  0  0  0  0  0  0
  -21.2305  -47.7749  -12.1405 C   0  0  0  0  0  0  0  0  0  0  0  0
  -20.8661  -49.1033  -11.9287 C   0  0  0  0  0  0  0  0  0  0  0  0
  -21.8768  -50.1502  -11.9468 C   0  0  0  0  0  0  0  0  0  0  0  0
  -21.5281  -51.4269  -11.7371 C   0  0  0  0  0  0  0  0  0  0  0  0
  -20.1121  -51.7982  -11.4905 C   0  0  0  0  0  0  0  0  0  0  0  0
  -19.8102  -52.9735  -11.3099 O   0  0  0  0  0  0  0  0  0  0  0  0
  -18.2232  -51.0246  -11.3048 H   0  0  0  0  0  0  0  0  0  0  0  0
  -17.5103  -48.6933  -11.4492 H   0  0  0  0  0  0  0  0  0  0  0  0
  -18.1628  -46.3401  -11.8522 H   0  0  0  0  0  0  0  0  0  0  0  0
  -22.2650  -47.5187  -12.3164 H   0  0  0  0  0  0  0  0  0  0  0  0
  -22.9055  -49.8802  -12.1291 H   0  0  0  0  0  0  0  0  0  0  0  0
  -22.2750  -52.2110  -11.7459 H   0  0  0  0  0  0  0  0  0  0  0  0
  1  6  1  0  0  0  0
  2  3  1  0  0  0  0
  2 11  1  0  0  0  0
  2 13  1  0  0  0  0
  3  4  2  0  0  0  0
  3  8  1  0  0  0  0
  4  5  1  0  0  0  0
  4 14  1  0  0  0  0
  5  6  2  0  0  0  0
  5 15  1  0  0  0  0
  6  7  1  0  0  0  0
  7  8  2  0  0  0  0
  7 16  1  0  0  0  0
  8  9  1  0  0  0  0
  9 10  2  0  0  0  0
  9 17  1  0  0  0  0
 10 11  1  0  0  0  0
 10 18  1  0  0  0  0
 11 12  2  0  0  0  0
M  CHG  1   2   1
M  END
$$$$
