0UJ
 OpenBabel04111918543D

 46 50  0  0  1  0  0  0  0  0999 V2000
    9.6473   55.9553    0.3115 C   0  0  0  0  0  0  0  0  0  0  0  0
    5.4502   54.9227    1.2746 C   0  0  0  0  0  0  0  0  0  0  0  0
    8.5538   57.0009    0.4190 C   0  0  0  0  0  0  0  0  0  0  0  0
    5.9543   55.4623    3.5756 C   0  0  0  0  0  0  0  0  0  0  0  0
    6.9021   55.4084    1.3831 C   0  0  2  0  0  0  0  0  0  0  0  0
    7.2601   55.1225    2.8683 C   0  0  2  0  0  0  0  0  0  0  0  0
    5.1297   54.4928    2.7246 C   0  0  2  0  0  0  0  0  0  0  0  0
   10.8873   56.4269   -0.3032 N   0  0  0  0  0  0  0  0  0  0  0  0
   11.7069   54.2899   -1.7474 C   0  0  0  0  0  0  0  0  0  0  0  0
   11.2878   56.0251   -1.8669 S   0  0  0  0  0  0  0  0  0  0  0  0
    7.2508   56.7519    0.9353 N   0  3  0  0  0  0  0  0  0  0  0  0
    7.3328   53.5899    3.0573 C   0  0  0  0  0  0  0  0  0  0  0  0
    5.8576   53.1616    2.9872 C   0  0  0  0  0  0  0  0  0  0  0  0
    6.5727   57.9388    0.8839 C   0  0  0  0  0  0  0  0  0  0  0  0
    5.3140   58.4108    1.2246 C   0  0  0  0  0  0  0  0  0  0  0  0
    4.1451   57.8486    1.8202 C   0  0  0  0  0  0  0  0  0  0  0  0
    3.1904   58.8517    1.9099 C   0  0  0  0  0  0  0  0  0  0  0  0
    3.7362   59.9955    1.3959 N   0  3  0  0  0  0  0  0  0  0  0  0
    5.0186   59.7477    0.9821 C   0  0  0  0  0  0  0  0  0  0  0  0
    5.8361   60.6507    0.4394 N   0  0  0  0  0  0  0  0  0  0  0  0
    7.0705   60.1795    0.1113 C   0  0  0  0  0  0  0  0  0  0  0  0
    7.4669   58.8509    0.3252 C   0  0  0  0  0  0  0  0  0  0  0  0
    8.6870   58.2690    0.0758 N   0  0  0  0  0  0  0  0  0  0  0  0
   12.5027   56.7468   -2.1724 O   0  0  0  0  0  0  0  0  0  0  0  0
   10.1051   56.1369   -2.6913 O   0  0  0  0  0  0  0  0  0  0  0  0
    9.2896   55.0817   -0.2375 H   0  0  0  0  0  0  0  0  0  0  0  0
    9.9179   55.6293    1.3219 H   0  0  0  0  0  0  0  0  0  0  0  0
    5.3580   54.0764    0.5846 H   0  0  0  0  0  0  0  0  0  0  0  0
    4.7847   55.6764    0.8725 H   0  0  0  0  0  0  0  0  0  0  0  0
    5.6817   56.5109    3.4630 H   0  0  0  0  0  0  0  0  0  0  0  0
    5.9510   55.2207    4.6435 H   0  0  0  0  0  0  0  0  0  0  0  0
    7.4804   54.7285    0.7477 H   0  0  0  0  0  0  0  0  0  0  0  0
    8.1442   55.6464    3.2396 H   0  0  0  0  0  0  0  0  0  0  0  0
    4.0619   54.4579    2.9492 H   0  0  0  0  0  0  0  0  0  0  0  0
   11.3743   57.2287    0.0967 H   0  0  0  0  0  0  0  0  0  0  0  0
   11.9894   53.9390   -2.7443 H   0  0  0  0  0  0  0  0  0  0  0  0
   10.8338   53.7275   -1.4112 H   0  0  0  0  0  0  0  0  0  0  0  0
   12.5465   54.1577   -1.0636 H   0  0  0  0  0  0  0  0  0  0  0  0
    7.7659   53.3199    4.0268 H   0  0  0  0  0  0  0  0  0  0  0  0
    7.9312   53.1054    2.2782 H   0  0  0  0  0  0  0  0  0  0  0  0
    5.6812   52.4283    2.1937 H   0  0  0  0  0  0  0  0  0  0  0  0
    5.5411   52.7158    3.9369 H   0  0  0  0  0  0  0  0  0  0  0  0
    3.9274   56.8595    2.1765 H   0  0  0  0  0  0  0  0  0  0  0  0
    2.1780   58.8387    2.3007 H   0  0  0  0  0  0  0  0  0  0  0  0
    3.2880   60.8997    1.3267 H   0  0  0  0  0  0  0  0  0  0  0  0
    7.7507   60.9002   -0.3288 H   0  0  0  0  0  0  0  0  0  0  0  0
  1  3  1  0  0  0  0
  1  8  1  0  0  0  0
  1 26  1  0  0  0  0
  1 27  1  0  0  0  0
  2  5  1  0  0  0  0
  2  7  1  0  0  0  0
  2 28  1  0  0  0  0
  2 29  1  0  0  0  0
  3 11  2  0  0  0  0
  3 23  1  0  0  0  0
  4  6  1  0  0  0  0
  4  7  1  0  0  0  0
  4 30  1  0  0  0  0
  4 31  1  0  0  0  0
  5  6  1  0  0  0  0
  5 11  1  0  0  0  0
  5 32  1  6  0  0  0
  6 12  1  0  0  0  0
  6 33  1  1  0  0  0
  7 13  1  0  0  0  0
  7 34  1  1  0  0  0
  8 10  1  0  0  0  0
  8 35  1  0  0  0  0
  9 10  1  0  0  0  0
  9 36  1  0  0  0  0
  9 37  1  0  0  0  0
  9 38  1  0  0  0  0
 10 24  2  0  0  0  0
 10 25  2  0  0  0  0
 11 14  1  0  0  0  0
 12 13  1  0  0  0  0
 12 39  1  0  0  0  0
 12 40  1  0  0  0  0
 13 41  1  0  0  0  0
 13 42  1  0  0  0  0
 14 15  2  0  0  0  0
 14 22  1  0  0  0  0
 15 16  1  0  0  0  0
 15 19  1  0  0  0  0
 16 17  2  0  0  0  0
 16 43  1  0  0  0  0
 17 18  1  0  0  0  0
 17 44  1  0  0  0  0
 18 19  2  0  0  0  0
 18 45  1  0  0  0  0
 19 20  1  0  0  0  0
 20 21  1  0  0  0  0
 21 22  2  0  0  0  0
 21 46  1  0  0  0  0
 22 23  1  0  0  0  0
M  CHG  2  11   1  18   1
M  END
$$$$
