0UP
 OpenBabel04111918553D

 66 69  0  0  1  0  0  0  0  0999 V2000
   26.9147   36.8404   45.1385 C   0  0  0  0  0  0  0  0  0  0  0  0
   26.0290   38.5475   41.2823 C   0  0  0  0  0  0  0  0  0  0  0  0
   25.6454   36.2747   45.0469 C   0  0  0  0  0  0  0  0  0  0  0  0
   27.3014   38.6583   41.8331 C   0  0  0  0  0  0  0  0  0  0  0  0
   27.0462   38.2088   45.3206 C   0  0  0  0  0  0  0  0  0  0  0  0
   26.3779   36.2072   40.9064 C   0  0  0  0  0  0  0  0  0  0  0  0
   24.6369   38.4302   45.4034 C   0  0  0  0  0  0  0  0  0  0  0  0
   25.5579   37.3145   40.8350 C   0  0  0  0  0  0  0  0  0  0  0  0
   24.5079   37.0676   45.1701 C   0  0  0  0  0  0  0  0  0  0  0  0
   28.1139   37.5387   41.8953 C   0  0  0  0  0  0  0  0  0  0  0  0
   27.6625   36.3082   41.4228 C   0  0  0  0  0  0  0  0  0  0  0  0
   25.9084   38.9942   45.4579 C   0  0  0  0  0  0  0  0  0  0  0  0
   22.3550   35.2867   43.1631 C   0  0  0  0  0  0  0  0  0  0  0  0
   21.9279   37.7169   43.4555 C   0  0  0  0  0  0  0  0  0  0  0  0
   20.8747   36.1094   44.9877 C   0  0  0  0  0  0  0  0  0  0  0  0
   23.4586   35.5724   42.1784 C   0  0  0  0  0  0  0  0  0  0  0  0
   22.9555   38.0176   42.3847 C   0  0  2  0  0  0  0  0  0  0  0  0
   22.1611   36.4095   44.1780 C   0  0  1  0  0  0  0  0  0  0  0  0
   22.4387   39.1883   41.5837 C   0  0  0  0  0  0  0  0  0  0  0  0
   28.5169   34.2734   39.2915 C   0  0  0  0  0  0  0  0  0  0  0  0
   29.0533   32.9857   41.3310 C   0  0  0  0  0  0  0  0  0  0  0  0
   20.2309   35.0967   47.1333 C   0  0  0  0  0  0  0  0  0  0  0  0
   24.1635   37.1429   40.3362 C   0  0  0  0  0  0  0  0  0  0  0  0
   28.2060   34.0940   40.7658 C   0  0  0  0  0  0  0  0  0  0  0  0
   23.2395   36.4325   45.1972 N   0  0  0  0  0  0  0  0  0  0  0  0
   21.2717   35.2497   46.1092 N   0  0  0  0  0  0  0  0  0  0  0  0
   23.1520   36.8503   41.4440 N   0  3  1  0  0  0  0  0  0  0  0  0
   23.6186   34.4940   46.8015 O   0  0  0  0  0  0  0  0  0  0  0  0
   22.7023   36.6916   47.6897 O   0  0  0  0  0  0  0  0  0  0  0  0
   29.3697   37.5902   42.4017 O   0  0  0  0  0  0  0  0  0  0  0  0
   28.5276   35.2691   41.5065 O   0  0  0  0  0  0  0  0  0  0  0  0
   26.0465   40.3091   45.6363 F   0  0  0  0  0  0  0  0  0  0  0  0
   22.8193   35.6643   46.6529 S   0  0  0  0  0  0  0  0  0  0  0  0
   27.7984   36.2092   45.0640 H   0  0  0  0  0  0  0  0  0  0  0  0
   25.4028   39.4313   41.2045 H   0  0  0  0  0  0  0  0  0  0  0  0
   25.5520   35.2011   44.9141 H   0  0  0  0  0  0  0  0  0  0  0  0
   27.6434   39.6227   42.1995 H   0  0  0  0  0  0  0  0  0  0  0  0
   28.0312   38.6608   45.3626 H   0  0  0  0  0  0  0  0  0  0  0  0
   25.9985   35.2579   40.5499 H   0  0  0  0  0  0  0  0  0  0  0  0
   23.7676   39.0533   45.5762 H   0  0  0  0  0  0  0  0  0  0  0  0
   22.5828   34.3598   43.6869 H   0  0  0  0  0  0  0  0  0  0  0  0
   21.4172   35.1462   42.5984 H   0  0  0  0  0  0  0  0  0  0  0  0
   20.9272   37.6949   42.9901 H   0  0  0  0  0  0  0  0  0  0  0  0
   21.9228   38.5357   44.1832 H   0  0  0  0  0  0  0  0  0  0  0  0
   20.1469   35.5855   44.3564 H   0  0  0  0  0  0  0  0  0  0  0  0
   20.4273   37.0455   45.3417 H   0  0  0  0  0  0  0  0  0  0  0  0
   23.5290   34.7683   41.4401 H   0  0  0  0  0  0  0  0  0  0  0  0
   24.4124   35.6887   42.6897 H   0  0  0  0  0  0  0  0  0  0  0  0
   23.9138   38.2441   42.8486 H   0  0  0  0  0  0  0  0  0  0  0  0
   23.1381   39.4671   40.8026 H   0  0  0  0  0  0  0  0  0  0  0  0
   22.3122   40.0518   42.2305 H   0  0  0  0  0  0  0  0  0  0  0  0
   21.4816   38.9339   41.1192 H   0  0  0  0  0  0  0  0  0  0  0  0
   28.2443   33.3717   38.7352 H   0  0  0  0  0  0  0  0  0  0  0  0
   29.5859   34.4663   39.1569 H   0  0  0  0  0  0  0  0  0  0  0  0
   27.9675   35.1211   38.8737 H   0  0  0  0  0  0  0  0  0  0  0  0
   28.8379   32.8540   42.3941 H   0  0  0  0  0  0  0  0  0  0  0  0
   30.1115   33.2444   41.2287 H   0  0  0  0  0  0  0  0  0  0  0  0
   28.8604   32.0486   40.8016 H   0  0  0  0  0  0  0  0  0  0  0  0
   19.2833   34.8308   46.6496 H   0  0  0  0  0  0  0  0  0  0  0  0
   20.0808   36.0267   47.6911 H   0  0  0  0  0  0  0  0  0  0  0  0
   20.4997   34.2935   47.8223 H   0  0  0  0  0  0  0  0  0  0  0  0
   24.1170   36.3246   39.6117 H   0  0  0  0  0  0  0  0  0  0  0  0
   23.8531   38.0397   39.8011 H   0  0  0  0  0  0  0  0  0  0  0  0
   27.1528   33.8196   40.8954 H   0  0  0  0  0  0  0  0  0  0  0  0
   29.5703   38.4961   42.7052 H   0  0  0  0  0  0  0  0  0  0  0  0
   22.2646   36.7013   40.9495 H   0  0  0  0  0  0  0  0  0  0  0  0
  1  3  2  0  0  0  0
  1  5  1  0  0  0  0
  1 34  1  0  0  0  0
  2  4  2  0  0  0  0
  2  8  1  0  0  0  0
  2 35  1  0  0  0  0
  3  9  1  0  0  0  0
  3 36  1  0  0  0  0
  4 10  1  0  0  0  0
  4 37  1  0  0  0  0
  5 12  2  0  0  0  0
  5 38  1  0  0  0  0
  6  8  2  0  0  0  0
  6 11  1  0  0  0  0
  6 39  1  0  0  0  0
  7  9  2  0  0  0  0
  7 12  1  0  0  0  0
  7 40  1  0  0  0  0
  8 23  1  0  0  0  0
  9 25  1  0  0  0  0
 10 11  2  0  0  0  0
 10 30  1  0  0  0  0
 11 31  1  0  0  0  0
 12 32  1  0  0  0  0
 13 16  1  0  0  0  0
 13 41  1  0  0  0  0
 13 42  1  0  0  0  0
 14 17  1  0  0  0  0
 14 18  1  0  0  0  0
 14 43  1  0  0  0  0
 14 44  1  0  0  0  0
 15 18  1  0  0  0  0
 15 26  1  0  0  0  0
 15 45  1  0  0  0  0
 15 46  1  0  0  0  0
 16 27  1  0  0  0  0
 16 47  1  0  0  0  0
 16 48  1  0  0  0  0
 17 19  1  0  0  0  0
 17 27  1  0  0  0  0
 17 49  1  1  0  0  0
 18 13  1  6  0  0  0
 18 25  1  0  0  0  0
 19 50  1  0  0  0  0
 19 51  1  0  0  0  0
 19 52  1  0  0  0  0
 20 24  1  0  0  0  0
 20 53  1  0  0  0  0
 20 54  1  0  0  0  0
 20 55  1  0  0  0  0
 21 24  1  0  0  0  0
 21 56  1  0  0  0  0
 21 57  1  0  0  0  0
 21 58  1  0  0  0  0
 22 26  1  0  0  0  0
 22 59  1  0  0  0  0
 22 60  1  0  0  0  0
 22 61  1  0  0  0  0
 23 27  1  0  0  0  0
 23 62  1  0  0  0  0
 23 63  1  0  0  0  0
 24 31  1  0  0  0  0
 24 64  1  0  0  0  0
 25 33  1  0  0  0  0
 26 33  1  0  0  0  0
 27 66  1  6  0  0  0
 28 33  2  0  0  0  0
 29 33  2  0  0  0  0
 30 65  1  0  0  0  0
M  CHG  1  27   1
M  END
$$$$
