0V5
 OpenBabel04111922103D

 14 13  0  0  1  0  0  0  0  0999 V2000
   45.2641  -22.7626   -3.1589 C   0  0  0  0  0  0  0  0  0  0  0  0
   44.4894  -23.2023   -2.2312 O   0  0  0  0  0  0  0  0  0  0  0  0
   45.9610  -21.7080   -3.0851 O   0  0  0  0  0  0  0  0  0  0  0  0
   45.2368  -23.5989   -4.4801 C   0  0  1  0  0  0  0  0  0  0  0  0
   43.9286  -23.2169   -5.1563 C   0  0  0  0  0  0  0  0  0  0  0  0
   46.3660  -23.3346   -5.3224 O   0  0  0  0  0  0  0  0  0  0  0  0
   46.6832  -24.2676   -6.6351 P   0  0  0  0  0  0  0  0  0  0  0  0
   46.1207  -23.4789   -7.8142 O   0  0  0  0  0  0  0  0  0  0  0  0
   48.2100  -24.3787   -6.6685 O   0  0  0  0  0  0  0  0  0  0  0  0
   45.9834  -25.5947   -6.4006 O   0  0  0  0  0  0  0  0  0  0  0  0
   45.2363  -24.6607   -4.2071 H   0  0  0  0  0  0  0  0  0  0  0  0
   43.7972  -23.7542   -6.1000 H   0  0  0  0  0  0  0  0  0  0  0  0
   43.9044  -22.1471   -5.3907 H   0  0  0  0  0  0  0  0  0  0  0  0
   43.0654  -23.4416   -4.5198 H   0  0  0  0  0  0  0  0  0  0  0  0
  1  2  2  0  0  0  0
  1  3  1  0  0  0  0
  1  4  1  0  0  0  0
  4  5  1  0  0  0  0
  4  6  1  0  0  0  0
  4 11  1  1  0  0  0
  5 12  1  0  0  0  0
  5 13  1  0  0  0  0
  5 14  1  0  0  0  0
  6  7  1  0  0  0  0
  7  8  2  0  0  0  0
  7  9  1  0  0  0  0
  7 10  1  0  0  0  0
M  END
$$$$
