0X2
 OpenBabel04111919033D

 26 27  0  0  0  0  0  0  0  0999 V2000
   31.3813  -14.5161    3.8678 C   0  0  0  0  0  0  0  0  0  0  0  0
   31.0325  -15.4168    2.8500 C   0  0  0  0  0  0  0  0  0  0  0  0
   30.5231  -16.6848    3.1664 C   0  0  0  0  0  0  0  0  0  0  0  0
   34.3090   -9.6815    1.9353 C   0  0  0  0  0  0  0  0  0  0  0  0
   31.9338  -13.1765    3.5340 C   0  0  0  0  0  0  0  0  0  0  0  0
   33.9090  -12.1632    2.3990 C   0  0  0  0  0  0  0  0  0  0  0  0
   35.0262  -12.4259    1.7119 C   0  0  0  0  0  0  0  0  0  0  0  0
   35.7556  -11.2835    1.1452 C   0  0  0  0  0  0  0  0  0  0  0  0
   33.4298  -10.7522    2.5809 C   0  0  0  0  0  0  0  0  0  0  0  0
   33.1873  -13.2225    2.9286 N   0  0  0  0  0  0  0  0  0  0  0  0
   35.4403  -10.0414    1.2382 N   0  0  0  0  0  0  0  0  0  0  0  0
   31.1956  -14.8968    5.2030 C   0  0  0  0  0  0  0  0  0  0  0  0
   33.9898   -8.5009    2.0493 O   0  0  0  0  0  0  0  0  0  0  0  0
   31.2771  -12.1759    3.7750 O   0  0  0  0  0  0  0  0  0  0  0  0
   31.6160  -13.8635    6.5200 Cl  0  0  0  0  0  0  0  0  0  0  0  0
   30.6883  -16.1694    5.5132 C   0  0  0  0  0  0  0  0  0  0  0  0
   31.2032  -15.0255    1.1745 Cl  0  0  0  0  0  0  0  0  0  0  0  0
   30.3518  -17.0631    4.4970 C   0  0  0  0  0  0  0  0  0  0  0  0
   30.2507  -17.3825    2.3763 H   0  0  0  0  0  0  0  0  0  0  0  0
   35.4128  -13.4181    1.5241 H   0  0  0  0  0  0  0  0  0  0  0  0
   36.6639  -11.5499    0.5811 H   0  0  0  0  0  0  0  0  0  0  0  0
   32.4363  -10.6379    2.1375 H   0  0  0  0  0  0  0  0  0  0  0  0
   33.3918  -10.5168    3.6511 H   0  0  0  0  0  0  0  0  0  0  0  0
   33.5904  -14.1445    2.8035 H   0  0  0  0  0  0  0  0  0  0  0  0
   30.5516  -16.4707    6.5510 H   0  0  0  0  0  0  0  0  0  0  0  0
   29.9507  -18.0466    4.7409 H   0  0  0  0  0  0  0  0  0  0  0  0
  1  2  2  0  0  0  0
  1  5  1  0  0  0  0
  1 12  1  0  0  0  0
  2  3  1  0  0  0  0
  2 17  1  0  0  0  0
  3 18  2  0  0  0  0
  3 19  1  0  0  0  0
  4  9  1  0  0  0  0
  4 11  1  0  0  0  0
  4 13  2  0  0  0  0
  5 10  1  0  0  0  0
  5 14  2  0  0  0  0
  6  7  2  0  0  0  0
  6  9  1  0  0  0  0
  6 10  1  0  0  0  0
  7  8  1  0  0  0  0
  7 20  1  0  0  0  0
  8 11  2  0  0  0  0
  8 21  1  0  0  0  0
  9 22  1  0  0  0  0
  9 23  1  0  0  0  0
 10 24  1  0  0  0  0
 12 15  1  0  0  0  0
 12 16  2  0  0  0  0
 16 18  1  0  0  0  0
 16 25  1  0  0  0  0
 18 26  1  0  0  0  0
M  END
$$$$
