0X3
 OpenBabel04111919043D

 27 29  0  0  0  0  0  0  0  0999 V2000
   17.4499  -39.8139    9.7154 Cl  0  0  0  0  0  0  0  0  0  0  0  0
   16.6070  -41.1853   10.3212 C   0  0  0  0  0  0  0  0  0  0  0  0
   15.2378  -41.0968   10.5692 C   0  0  0  0  0  0  0  0  0  0  0  0
   17.2864  -42.3771   10.5396 C   0  0  0  0  0  0  0  0  0  0  0  0
   16.5825  -43.4723   11.0233 C   0  0  0  0  0  0  0  0  0  0  0  0
   17.2250  -44.6313   11.2172 F   0  0  0  0  0  0  0  0  0  0  0  0
   15.2174  -43.3982   11.2862 C   0  0  0  0  0  0  0  0  0  0  0  0
   14.5279  -42.2092   11.0421 C   0  0  0  0  0  0  0  0  0  0  0  0
   13.1343  -42.1633   11.2063 N   0  0  0  0  0  0  0  0  0  0  0  0
   12.1414  -41.7639   10.2750 C   0  0  0  0  0  0  0  0  0  0  0  0
   10.8085  -41.4524   10.6690 C   0  0  0  0  0  0  0  0  0  0  0  0
   10.3396  -41.5373   12.0434 N   0  0  0  0  0  0  0  0  0  0  0  0
   11.1655  -41.8718   12.9082 O   0  0  0  0  0  0  0  0  0  0  0  0
    9.1544  -41.2936   12.2941 O   0  0  0  0  0  0  0  0  0  0  0  0
   12.5195  -41.6591    8.8933 C   0  0  0  0  0  0  0  0  0  0  0  0
   11.6674  -41.2590    7.8514 C   0  0  0  0  0  0  0  0  0  0  0  0
   10.3599  -40.9619    8.2557 C   0  0  0  0  0  0  0  0  0  0  0  0
    9.9161  -41.0533    9.6449 C   0  0  0  0  0  0  0  0  0  0  0  0
    9.3307  -40.5689    7.4986 N   0  0  0  0  0  0  0  0  0  0  0  0
    8.2666  -40.4149    8.3618 O   0  0  0  0  0  0  0  0  0  0  0  0
    8.6207  -40.7027    9.6624 N   0  0  0  0  0  0  0  0  0  0  0  0
   14.7172  -40.1584   10.3915 H   0  0  0  0  0  0  0  0  0  0  0  0
   18.3474  -42.4676   10.3342 H   0  0  0  0  0  0  0  0  0  0  0  0
   14.6967  -44.2868   11.6305 H   0  0  0  0  0  0  0  0  0  0  0  0
   12.8014  -42.4352   12.1356 H   0  0  0  0  0  0  0  0  0  0  0  0
   13.5372  -41.9258    8.6015 H   0  0  0  0  0  0  0  0  0  0  0  0
   11.9959  -41.1959    6.8206 H   0  0  0  0  0  0  0  0  0  0  0  0
  1  2  1  0  0  0  0
  2  3  2  0  0  0  0
  2  4  1  0  0  0  0
  3  8  1  0  0  0  0
  3 22  1  0  0  0  0
  4  5  2  0  0  0  0
  4 23  1  0  0  0  0
  5  6  1  0  0  0  0
  5  7  1  0  0  0  0
  7  8  2  0  0  0  0
  7 24  1  0  0  0  0
  8  9  1  0  0  0  0
  9 10  1  0  0  0  0
  9 25  1  0  0  0  0
 10 11  2  0  0  0  0
 10 15  1  0  0  0  0
 11 12  1  0  0  0  0
 11 18  1  0  0  0  0
 12 13  2  0  0  0  0
 12 14  2  0  0  0  0
 15 16  2  0  0  0  0
 15 26  1  0  0  0  0
 16 17  1  0  0  0  0
 16 27  1  0  0  0  0
 17 18  1  0  0  0  0
 17 19  2  0  0  0  0
 18 21  2  0  0  0  0
 19 20  1  0  0  0  0
 20 21  1  0  0  0  0
M  END
$$$$
