0X5
 OpenBabel04111919043D

 36 38  0  0  0  0  0  0  0  0999 V2000
   -6.7867   -6.0316  -15.4974 C   0  0  0  0  0  0  0  0  0  0  0  0
   -7.3812   -4.7641  -15.5803 C   0  0  0  0  0  0  0  0  0  0  0  0
   -6.5948   -3.6340  -15.8275 C   0  0  0  0  0  0  0  0  0  0  0  0
   -8.7729   -9.1819  -16.0385 C   0  0  0  0  0  0  0  0  0  0  0  0
   -7.6336   -7.1705  -15.1027 C   0  0  0  0  0  0  0  0  0  0  0  0
   -9.5628   -9.5083  -14.9497 C   0  0  0  0  0  0  0  0  0  0  0  0
  -10.4303  -10.5857  -15.0821 C   0  0  0  0  0  0  0  0  0  0  0  0
   -5.4070   -6.1618  -15.6953 C   0  0  0  0  0  0  0  0  0  0  0  0
   -5.2187   -3.7617  -16.0019 C   0  0  0  0  0  0  0  0  0  0  0  0
   -4.6254   -5.0234  -15.9438 C   0  0  0  0  0  0  0  0  0  0  0  0
   -9.0891   -4.5331  -15.4477 Cl  0  0  0  0  0  0  0  0  0  0  0  0
   -8.0670   -7.1923  -13.9599 O   0  0  0  0  0  0  0  0  0  0  0  0
   -7.8920   -8.0827  -16.1078 N   0  0  0  0  0  0  0  0  0  0  0  0
  -10.5501  -11.3465  -16.2053 N   0  0  0  0  0  0  0  0  0  0  0  0
   -9.7343  -11.0464  -17.2367 C   0  0  0  0  0  0  0  0  0  0  0  0
   -8.8638   -9.9680  -17.1851 C   0  0  0  0  0  0  0  0  0  0  0  0
   -9.8263  -11.8594  -18.3908 N   0  0  0  0  0  0  0  0  0  0  0  0
   -8.8452  -11.9528  -19.3537 C   0  0  0  0  0  0  0  0  0  0  0  0
   -7.7653  -11.3600  -19.3314 O   0  0  0  0  0  0  0  0  0  0  0  0
   -9.0936  -12.8837  -20.5016 C   0  0  0  0  0  0  0  0  0  0  0  0
   -8.4705  -12.5544  -21.8501 C   0  0  0  0  0  0  0  0  0  0  0  0
   -7.9312  -13.6995  -21.0445 C   0  0  0  0  0  0  0  0  0  0  0  0
   -4.6019   -7.6870  -15.6541 Cl  0  0  0  0  0  0  0  0  0  0  0  0
   -7.0564   -2.6504  -15.8831 H   0  0  0  0  0  0  0  0  0  0  0  0
   -9.5454   -8.9500  -14.0192 H   0  0  0  0  0  0  0  0  0  0  0  0
  -11.0772  -10.8635  -14.2540 H   0  0  0  0  0  0  0  0  0  0  0  0
   -4.6105   -2.8782  -16.1887 H   0  0  0  0  0  0  0  0  0  0  0  0
   -3.5503   -5.1113  -16.0838 H   0  0  0  0  0  0  0  0  0  0  0  0
   -7.4211   -7.9450  -16.9961 H   0  0  0  0  0  0  0  0  0  0  0  0
   -8.2696   -9.6930  -18.0443 H   0  0  0  0  0  0  0  0  0  0  0  0
  -10.6271  -12.4779  -18.3998 H   0  0  0  0  0  0  0  0  0  0  0  0
  -10.0686  -13.3564  -20.5248 H   0  0  0  0  0  0  0  0  0  0  0  0
   -7.8607  -11.6575  -21.9318 H   0  0  0  0  0  0  0  0  0  0  0  0
   -9.0146  -12.7824  -22.7584 H   0  0  0  0  0  0  0  0  0  0  0  0
   -8.1095  -14.7042  -21.4084 H   0  0  0  0  0  0  0  0  0  0  0  0
   -6.9558  -13.5811  -20.5786 H   0  0  0  0  0  0  0  0  0  0  0  0
  1  2  2  0  0  0  0
  1  5  1  0  0  0  0
  1  8  1  0  0  0  0
  2  3  1  0  0  0  0
  2 11  1  0  0  0  0
  3  9  2  0  0  0  0
  3 24  1  0  0  0  0
  4  6  2  0  0  0  0
  4 13  1  0  0  0  0
  4 16  1  0  0  0  0
  5 12  2  0  0  0  0
  5 13  1  0  0  0  0
  6  7  1  0  0  0  0
  6 25  1  0  0  0  0
  7 14  2  0  0  0  0
  7 26  1  0  0  0  0
  8 10  2  0  0  0  0
  8 23  1  0  0  0  0
  9 10  1  0  0  0  0
  9 27  1  0  0  0  0
 10 28  1  0  0  0  0
 13 29  1  0  0  0  0
 14 15  1  0  0  0  0
 15 16  2  0  0  0  0
 15 17  1  0  0  0  0
 16 30  1  0  0  0  0
 17 18  1  0  0  0  0
 17 31  1  0  0  0  0
 18 19  2  0  0  0  0
 18 20  1  0  0  0  0
 20 21  1  0  0  0  0
 20 22  1  0  0  0  0
 20 32  1  0  0  0  0
 21 22  1  0  0  0  0
 21 33  1  0  0  0  0
 21 34  1  0  0  0  0
 22 35  1  0  0  0  0
 22 36  1  0  0  0  0
M  END
$$$$
