0X6
 OpenBabel04111919053D

 37 39  0  0  0  0  0  0  0  0999 V2000
   -9.6303  -10.8450  -17.2840 C   0  0  0  0  0  0  0  0  0  0  0  0
   -4.6205   -4.8756  -16.1635 C   0  0  0  0  0  0  0  0  0  0  0  0
   -8.8376   -9.7096  -17.2515 C   0  0  0  0  0  0  0  0  0  0  0  0
   -8.7485   -8.9679  -16.0727 C   0  0  0  0  0  0  0  0  0  0  0  0
   -7.3139   -4.5173  -15.4815 C   0  0  0  0  0  0  0  0  0  0  0  0
   -7.6048   -6.9589  -15.1074 C   0  0  0  0  0  0  0  0  0  0  0  0
   -6.7567   -5.8024  -15.4923 C   0  0  0  0  0  0  0  0  0  0  0  0
   -6.5255   -3.4153  -15.8143 C   0  0  0  0  0  0  0  0  0  0  0  0
   -5.1778   -3.5924  -16.1512 C   0  0  0  0  0  0  0  0  0  0  0  0
  -10.3614  -11.2351  -16.2103 N   0  0  0  0  0  0  0  0  0  0  0  0
   -9.4716   -9.3728  -14.9568 C   0  0  0  0  0  0  0  0  0  0  0  0
  -10.2589  -10.5049  -15.0642 C   0  0  0  0  0  0  0  0  0  0  0  0
   -7.9335   -7.8119  -16.1362 N   0  0  0  0  0  0  0  0  0  0  0  0
   -7.9592   -7.0739  -13.9478 O   0  0  0  0  0  0  0  0  0  0  0  0
   -5.4092   -5.9788  -15.8334 C   0  0  0  0  0  0  0  0  0  0  0  0
   -4.6849   -7.5450  -15.8825 Cl  0  0  0  0  0  0  0  0  0  0  0  0
   -4.3779   -2.4775  -16.4824 C   0  0  0  0  0  0  0  0  0  0  0  0
   -3.7035   -1.5533  -16.7581 N   0  0  0  0  0  0  0  0  0  0  0  0
   -8.9798   -4.2583  -15.0984 Cl  0  0  0  0  0  0  0  0  0  0  0  0
   -9.7622  -11.6275  -18.4527 N   0  0  0  0  0  0  0  0  0  0  0  0
   -8.7647  -11.8418  -19.3738 C   0  0  0  0  0  0  0  0  0  0  0  0
   -7.6445  -11.3608  -19.2974 O   0  0  0  0  0  0  0  0  0  0  0  0
   -9.1207  -12.7484  -20.5280 C   0  0  0  0  0  0  0  0  0  0  0  0
   -8.4323  -12.5553  -21.8859 C   0  0  0  0  0  0  0  0  0  0  0  0
   -8.0876  -13.7610  -21.0361 C   0  0  0  0  0  0  0  0  0  0  0  0
   -3.5699   -5.0112  -16.4293 H   0  0  0  0  0  0  0  0  0  0  0  0
   -8.3141   -9.3858  -18.1407 H   0  0  0  0  0  0  0  0  0  0  0  0
   -6.9560   -2.4116  -15.8073 H   0  0  0  0  0  0  0  0  0  0  0  0
   -9.4546   -8.8279  -14.0254 H   0  0  0  0  0  0  0  0  0  0  0  0
  -10.8497  -10.8614  -14.2149 H   0  0  0  0  0  0  0  0  0  0  0  0
   -7.5457   -7.5954  -17.0420 H   0  0  0  0  0  0  0  0  0  0  0  0
  -10.6498  -12.0877  -18.5865 H   0  0  0  0  0  0  0  0  0  0  0  0
  -10.1697  -13.0403  -20.5277 H   0  0  0  0  0  0  0  0  0  0  0  0
   -7.7042  -11.7474  -22.0019 H   0  0  0  0  0  0  0  0  0  0  0  0
   -8.9931  -12.6863  -22.8103 H   0  0  0  0  0  0  0  0  0  0  0  0
   -8.4020  -14.7548  -21.3490 H   0  0  0  0  0  0  0  0  0  0  0  0
   -7.1133  -13.8145  -20.5413 H   0  0  0  0  0  0  0  0  0  0  0  0
  1  3  2  0  0  0  0
  1 10  1  0  0  0  0
  1 20  1  0  0  0  0
  2  9  2  0  0  0  0
  2 15  1  0  0  0  0
  2 26  1  0  0  0  0
  3  4  1  0  0  0  0
  3 27  1  0  0  0  0
  4 11  2  0  0  0  0
  4 13  1  0  0  0  0
  5  7  1  0  0  0  0
  5  8  2  0  0  0  0
  5 19  1  0  0  0  0
  6  7  1  0  0  0  0
  6 13  1  0  0  0  0
  6 14  2  0  0  0  0
  7 15  2  0  0  0  0
  8  9  1  0  0  0  0
  8 28  1  0  0  0  0
  9 17  1  0  0  0  0
 10 12  2  0  0  0  0
 11 12  1  0  0  0  0
 11 29  1  0  0  0  0
 12 30  1  0  0  0  0
 13 31  1  0  0  0  0
 15 16  1  0  0  0  0
 17 18  3  0  0  0  0
 20 21  1  0  0  0  0
 20 32  1  0  0  0  0
 21 22  2  0  0  0  0
 21 23  1  0  0  0  0
 23 24  1  0  0  0  0
 23 25  1  0  0  0  0
 23 33  1  0  0  0  0
 24 25  1  0  0  0  0
 24 34  1  0  0  0  0
 24 35  1  0  0  0  0
 25 36  1  0  0  0  0
 25 37  1  0  0  0  0
M  END
$$$$
