0Y7
 OpenBabel04111919143D

 54 56  0  0  1  0  0  0  0  0999 V2000
   15.0758   17.5367   17.4713 Cl  0  0  0  0  0  0  0  0  0  0  0  0
   16.1117   16.2908   16.8876 C   0  0  0  0  0  0  0  0  0  0  0  0
   17.4882   16.4205   17.0728 C   0  0  0  0  0  0  0  0  0  0  0  0
   18.3394   15.4081   16.6458 C   0  0  0  0  0  0  0  0  0  0  0  0
   15.5718   15.1690   16.2559 C   0  0  0  0  0  0  0  0  0  0  0  0
   16.4180   14.1549   15.8239 C   0  0  0  0  0  0  0  0  0  0  0  0
   17.8010   14.2650   16.0396 C   0  0  0  0  0  0  0  0  0  0  0  0
   18.6851   13.1153   15.6011 C   0  0  1  0  0  0  0  0  0  0  0  0
   19.5851   13.5442   14.5191 N   0  0  0  0  0  0  0  0  0  0  0  0
   19.0125   14.3429   13.3744 C   0  0  2  0  0  0  0  0  0  0  0  0
   18.8048   13.4608   12.1382 C   0  0  0  0  0  0  0  0  0  0  0  0
   17.7296   12.5470   12.3707 O   0  0  0  0  0  0  0  0  0  0  0  0
   20.9027   13.1152   14.4559 C   0  0  0  0  0  0  0  0  0  0  0  0
   21.6377   13.4655   13.5201 O   0  0  0  0  0  0  0  0  0  0  0  0
   21.4801   12.2401   15.5742 C   0  0  1  0  0  0  0  0  0  0  0  0
   22.4079   13.0250   16.5170 C   0  0  0  0  0  0  0  0  0  0  0  0
   23.3043   11.9901   17.2888 C   0  0  0  0  0  0  0  0  0  0  0  0
   23.0280   11.7930   18.5082 O   0  0  0  0  0  0  0  0  0  0  0  0
   24.1604   11.4661   16.5639 O   0  0  0  0  0  0  0  0  0  0  0  0
   20.4405   11.4802   16.3831 C   0  0  0  0  0  0  0  0  0  0  0  0
   19.3433   12.4274   16.8299 C   0  0  2  0  0  0  0  0  0  0  0  0
   18.3449   11.7232   17.7384 C   0  0  0  0  0  0  0  0  0  0  0  0
   17.8252   10.4502   17.4483 C   0  0  0  0  0  0  0  0  0  0  0  0
   16.8879    9.8567   18.2953 C   0  0  0  0  0  0  0  0  0  0  0  0
   16.4627   10.5248   19.4403 C   0  0  0  0  0  0  0  0  0  0  0  0
   16.9840   11.7807   19.7330 C   0  0  0  0  0  0  0  0  0  0  0  0
   16.4521   12.6143   21.1362 Cl  0  0  0  0  0  0  0  0  0  0  0  0
   17.9209   12.3834   18.9007 C   0  0  0  0  0  0  0  0  0  0  0  0
   19.8360   15.5761   12.9554 C   0  0  0  0  0  0  0  0  0  0  0  0
   19.4808   16.8831   13.6398 C   0  0  0  0  0  0  0  0  0  0  0  0
   17.8981   17.3022   17.5560 H   0  0  0  0  0  0  0  0  0  0  0  0
   19.4162   15.4983   16.7866 H   0  0  0  0  0  0  0  0  0  0  0  0
   14.5022   15.0712   16.1044 H   0  0  0  0  0  0  0  0  0  0  0  0
   16.0135   13.2700   15.3305 H   0  0  0  0  0  0  0  0  0  0  0  0
   18.0150   12.3777   15.1526 H   0  0  0  0  0  0  0  0  0  0  0  0
   18.0322   14.7017   13.6832 H   0  0  0  0  0  0  0  0  0  0  0  0
   19.7111   12.9000   11.8953 H   0  0  0  0  0  0  0  0  0  0  0  0
   18.5279   14.0791   11.2732 H   0  0  0  0  0  0  0  0  0  0  0  0
   17.9893   12.0015   13.1324 H   0  0  0  0  0  0  0  0  0  0  0  0
   22.0780   11.4773   15.0630 H   0  0  0  0  0  0  0  0  0  0  0  0
   21.8319   13.6821   17.1761 H   0  0  0  0  0  0  0  0  0  0  0  0
   23.0724   13.6648   15.9104 H   0  0  0  0  0  0  0  0  0  0  0  0
   20.9158   11.0277   17.2679 H   0  0  0  0  0  0  0  0  0  0  0  0
   20.0248   10.6646   15.7814 H   0  0  0  0  0  0  0  0  0  0  0  0
   19.8245   13.1951   17.4457 H   0  0  0  0  0  0  0  0  0  0  0  0
   18.1480    9.9108   16.5606 H   0  0  0  0  0  0  0  0  0  0  0  0
   16.4893    8.8735   18.0622 H   0  0  0  0  0  0  0  0  0  0  0  0
   15.7312   10.0679   20.1001 H   0  0  0  0  0  0  0  0  0  0  0  0
   18.3155   13.3638   19.1517 H   0  0  0  0  0  0  0  0  0  0  0  0
   19.7031   15.7369   11.8792 H   0  0  0  0  0  0  0  0  0  0  0  0
   20.8881   15.4009   13.1450 H   0  0  0  0  0  0  0  0  0  0  0  0
   20.1275   17.6861   13.2585 H   0  0  0  0  0  0  0  0  0  0  0  0
   19.6329   16.8049   14.7168 H   0  0  0  0  0  0  0  0  0  0  0  0
   18.4394   17.1549   13.4381 H   0  0  0  0  0  0  0  0  0  0  0  0
  1  2  1  0  0  0  0
  2  3  2  0  0  0  0
  2  5  1  0  0  0  0
  3  4  1  0  0  0  0
  3 31  1  0  0  0  0
  4  7  2  0  0  0  0
  4 32  1  0  0  0  0
  5  6  2  0  0  0  0
  5 33  1  0  0  0  0
  6  7  1  0  0  0  0
  6 34  1  0  0  0  0
  7  8  1  0  0  0  0
  8  9  1  0  0  0  0
  8 21  1  0  0  0  0
  8 35  1  6  0  0  0
  9 10  1  0  0  0  0
  9 13  1  0  0  0  0
 10 11  1  0  0  0  0
 10 29  1  0  0  0  0
 10 36  1  1  0  0  0
 11 12  1  0  0  0  0
 11 37  1  0  0  0  0
 11 38  1  0  0  0  0
 12 39  1  0  0  0  0
 13 14  2  0  0  0  0
 13 15  1  0  0  0  0
 15 16  1  0  0  0  0
 15 20  1  0  0  0  0
 15 40  1  6  0  0  0
 16 17  1  0  0  0  0
 16 41  1  0  0  0  0
 16 42  1  0  0  0  0
 17 18  2  0  0  0  0
 17 19  1  0  0  0  0
 20 21  1  0  0  0  0
 20 43  1  0  0  0  0
 20 44  1  0  0  0  0
 21 22  1  0  0  0  0
 21 45  1  1  0  0  0
 22 23  2  0  0  0  0
 22 28  1  0  0  0  0
 23 24  1  0  0  0  0
 23 46  1  0  0  0  0
 24 25  2  0  0  0  0
 24 47  1  0  0  0  0
 25 26  1  0  0  0  0
 25 48  1  0  0  0  0
 26 27  1  0  0  0  0
 26 28  2  0  0  0  0
 28 49  1  0  0  0  0
 29 30  1  0  0  0  0
 29 50  1  0  0  0  0
 29 51  1  0  0  0  0
 30 52  1  0  0  0  0
 30 53  1  0  0  0  0
 30 54  1  0  0  0  0
M  END
$$$$
