0ZP
 OpenBabel04111918483D

127132  0  0  1  0  0  0  0  0999 V2000
    3.3719   29.0646   17.3406 C   0  0  0  0  0  0  0  0  0  0  0  0
    3.2199   28.1893   16.5213 O   0  0  0  0  0  0  0  0  0  0  0  0
    4.0722   28.8792   18.6820 C   0  0  0  0  0  0  0  0  0  0  0  0
    3.8214   27.4564   19.1576 C   0  0  0  0  0  0  0  0  0  0  0  0
    2.3504   27.2208   19.4617 C   0  0  0  0  0  0  0  0  0  0  0  0
    1.4714   28.3111   19.5861 C   0  0  0  0  0  0  0  0  0  0  0  0
    0.1142   28.1561   19.8360 C   0  0  0  0  0  0  0  0  0  0  0  0
   -0.4118   26.8839   19.9751 C   0  0  0  0  0  0  0  0  0  0  0  0
    0.4159   25.7692   19.8735 C   0  0  0  0  0  0  0  0  0  0  0  0
   -0.1314   24.4942   20.0383 C   0  0  0  0  0  0  0  0  0  0  0  0
    0.6943   23.3765   19.9894 C   0  0  0  0  0  0  0  0  0  0  0  0
    2.0577   23.5219   19.7344 C   0  0  0  0  0  0  0  0  0  0  0  0
    2.6053   24.7877   19.5370 C   0  0  0  0  0  0  0  0  0  0  0  0
    1.8120   25.9345   19.6206 C   0  0  0  0  0  0  0  0  0  0  0  0
    5.5397   29.1741   18.4392 C   0  0  0  0  0  0  0  0  0  0  0  0
    6.4822   28.6000   19.4563 C   0  0  0  0  0  0  0  0  0  0  0  0
    7.0145   27.3206   19.1969 C   0  0  0  0  0  0  0  0  0  0  0  0
    7.8738   26.7106   20.0964 C   0  0  0  0  0  0  0  0  0  0  0  0
    8.2059   27.3817   21.2713 C   0  0  0  0  0  0  0  0  0  0  0  0
    7.6839   28.6660   21.5562 C   0  0  0  0  0  0  0  0  0  0  0  0
    8.0118   29.3471   22.7370 C   0  0  0  0  0  0  0  0  0  0  0  0
    7.4784   30.6162   22.9823 C   0  0  0  0  0  0  0  0  0  0  0  0
    6.6220   31.2328   22.0812 C   0  0  0  0  0  0  0  0  0  0  0  0
    6.2850   30.5653   20.9186 C   0  0  0  0  0  0  0  0  0  0  0  0
    6.8089   29.2816   20.6385 C   0  0  0  0  0  0  0  0  0  0  0  0
    2.9667   30.3643   17.1847 N   0  0  0  0  0  0  0  0  0  0  0  0
    2.4812   30.9352   15.9444 C   0  0  2  0  0  0  0  0  0  0  0  0
    3.1901   32.2941   15.7545 C   0  0  0  0  0  0  0  0  0  0  0  0
    2.8361   33.3134   16.3044 O   0  0  0  0  0  0  0  0  0  0  0  0
    1.0758   31.4928   15.9438 C   0  0  0  0  0  0  0  0  0  0  0  0
   -0.0863   30.6810   16.2884 C   0  0  0  0  0  0  0  0  0  0  0  0
   -0.1031   29.3864   16.7251 N   0  3  0  0  0  0  0  0  0  0  0  0
   -1.4058   31.0846   16.2598 C   0  0  0  0  0  0  0  0  0  0  0  0
   -1.4129   29.0566   16.9650 C   0  0  0  0  0  0  0  0  0  0  0  0
   -2.2161   30.0654   16.6965 N   0  0  0  0  0  0  0  0  0  0  0  0
    4.2495   32.2624   14.9334 N   0  0  0  0  0  0  0  0  0  0  0  0
    5.0273   33.4606   14.6315 C   0  0  1  0  0  0  0  0  0  0  0  0
    6.4903   33.0798   14.7861 C   0  0  0  0  0  0  0  0  0  0  0  0
    6.7667   32.5194   16.1810 C   0  0  0  0  0  0  0  0  0  0  0  0
    6.6451   33.6207   17.2277 C   0  0  0  0  0  0  0  0  0  0  0  0
    8.1533   31.9251   16.2046 C   0  0  0  0  0  0  0  0  0  0  0  0
    7.0128   33.1395   18.6180 C   0  0  0  0  0  0  0  0  0  0  0  0
    8.4936   31.4217   17.5933 C   0  0  0  0  0  0  0  0  0  0  0  0
    8.4118   32.5469   18.6164 C   0  0  0  0  0  0  0  0  0  0  0  0
    4.6900   33.9655   13.2239 C   0  0  1  0  0  0  0  0  0  0  0  0
    5.2461   33.0888   12.2315 O   0  0  0  0  0  0  0  0  0  0  0  0
    3.1765   33.9790   13.0261 C   0  0  0  0  0  0  0  0  0  0  0  0
    2.7505   35.0471   12.0623 C   0  0  1  0  0  0  0  0  0  0  0  0
    1.2252   35.0496   11.8921 C   0  0  0  0  0  0  0  0  0  0  0  0
    0.8969   34.7693   10.4388 C   0  0  0  0  0  0  0  0  0  0  0  0
    0.8911   33.2665   10.2055 C   0  0  0  0  0  0  0  0  0  0  0  0
   -0.4634   35.3439   10.1124 C   0  0  0  0  0  0  0  0  0  0  0  0
    3.0070   36.3262   12.6845 C   0  0  0  0  0  0  0  0  0  0  0  0
    2.5311   36.6508   13.7212 O   0  0  0  0  0  0  0  0  0  0  0  0
    3.8921   37.0646   11.9188 N   0  0  0  0  0  0  0  0  0  0  0  0
    4.2873   38.3434   12.3916 C   0  0  0  0  0  0  0  0  0  0  0  0
    3.6244   39.4627   11.6089 C   0  0  2  0  0  0  0  0  0  0  0  0
    3.4972   40.7206   12.4670 C   0  0  0  0  0  0  0  0  0  0  0  0
    2.2218   39.1150   11.1198 C   0  0  0  0  0  0  0  0  0  0  0  0
    4.4378   41.8178   12.0172 C   0  0  0  0  0  0  0  0  0  0  0  0
    3.6662   29.5658   19.4359 H   0  0  0  0  0  0  0  0  0  0  0  0
    4.4334   27.3014   20.0577 H   0  0  0  0  0  0  0  0  0  0  0  0
    4.1916   26.7850   18.3668 H   0  0  0  0  0  0  0  0  0  0  0  0
    1.8272   29.3256   19.4716 H   0  0  0  0  0  0  0  0  0  0  0  0
   -0.5298   29.0264   19.9100 H   0  0  0  0  0  0  0  0  0  0  0  0
   -1.4737   26.7599   20.1761 H   0  0  0  0  0  0  0  0  0  0  0  0
   -1.2004   24.3796   20.2109 H   0  0  0  0  0  0  0  0  0  0  0  0
    0.2743   22.3881   20.1497 H   0  0  0  0  0  0  0  0  0  0  0  0
    2.6987   22.6466   19.6868 H   0  0  0  0  0  0  0  0  0  0  0  0
    3.6655   24.8885   19.3299 H   0  0  0  0  0  0  0  0  0  0  0  0
    5.6569   30.2633   18.4232 H   0  0  0  0  0  0  0  0  0  0  0  0
    5.8180   28.8157   17.4510 H   0  0  0  0  0  0  0  0  0  0  0  0
    6.7453   26.7965   18.2798 H   0  0  0  0  0  0  0  0  0  0  0  0
    8.2840   25.7251   19.8842 H   0  0  0  0  0  0  0  0  0  0  0  0
    8.8825   26.8862   21.9664 H   0  0  0  0  0  0  0  0  0  0  0  0
    8.6775   28.9088   23.4772 H   0  0  0  0  0  0  0  0  0  0  0  0
    7.7219   31.1560   23.8913 H   0  0  0  0  0  0  0  0  0  0  0  0
    6.2245   32.2218   22.2975 H   0  0  0  0  0  0  0  0  0  0  0  0
    5.6052   31.0649   20.2326 H   0  0  0  0  0  0  0  0  0  0  0  0
    3.0242   30.9700   18.0047 H   0  0  0  0  0  0  0  0  0  0  0  0
    2.6589   30.2347   15.1243 H   0  0  0  0  0  0  0  0  0  0  0  0
    0.9193   31.8985   14.9264 H   0  0  0  0  0  0  0  0  0  0  0  0
    1.0505   32.3444   16.6420 H   0  0  0  0  0  0  0  0  0  0  0  0
    0.6941   28.7754   16.8607 H   0  0  0  0  0  0  0  0  0  0  0  0
   -1.7892   32.0623   15.9505 H   0  0  0  0  0  0  0  0  0  0  0  0
   -1.7282   28.0807   17.3354 H   0  0  0  0  0  0  0  0  0  0  0  0
    4.4412   31.4070   14.4444 H   0  0  0  0  0  0  0  0  0  0  0  0
    4.7825   34.2571   15.3450 H   0  0  0  0  0  0  0  0  0  0  0  0
    7.1204   33.9605   14.6195 H   0  0  0  0  0  0  0  0  0  0  0  0
    6.7592   32.3172   14.0425 H   0  0  0  0  0  0  0  0  0  0  0  0
    6.0797   31.6960   16.4137 H   0  0  0  0  0  0  0  0  0  0  0  0
    5.6209   33.9810   17.2303 H   0  0  0  0  0  0  0  0  0  0  0  0
    7.3116   34.4507   16.9544 H   0  0  0  0  0  0  0  0  0  0  0  0
    8.8527   32.7108   15.8969 H   0  0  0  0  0  0  0  0  0  0  0  0
    8.1779   31.1053   15.4782 H   0  0  0  0  0  0  0  0  0  0  0  0
    6.2970   32.3784   18.9253 H   0  0  0  0  0  0  0  0  0  0  0  0
    6.9572   33.9685   19.3290 H   0  0  0  0  0  0  0  0  0  0  0  0
    9.4963   31.0071   17.5773 H   0  0  0  0  0  0  0  0  0  0  0  0
    7.7917   30.6331   17.8778 H   0  0  0  0  0  0  0  0  0  0  0  0
    8.6609   32.1652   19.6115 H   0  0  0  0  0  0  0  0  0  0  0  0
    9.1344   33.3314   18.3545 H   0  0  0  0  0  0  0  0  0  0  0  0
    5.1252   34.9602   13.0810 H   0  0  0  0  0  0  0  0  0  0  0  0
    6.2111   33.0643   12.3573 H   0  0  0  0  0  0  0  0  0  0  0  0
    2.6730   34.1538   13.9831 H   0  0  0  0  0  0  0  0  0  0  0  0
    2.8321   33.0354   12.6056 H   0  0  0  0  0  0  0  0  0  0  0  0
    3.2523   34.9692   11.1106 H   0  0  0  0  0  0  0  0  0  0  0  0
    0.8068   36.0223   12.1929 H   0  0  0  0  0  0  0  0  0  0  0  0
    0.8099   34.2822   12.5481 H   0  0  0  0  0  0  0  0  0  0  0  0
    1.6530   35.2345    9.7873 H   0  0  0  0  0  0  0  0  0  0  0  0
    0.6410   33.0525    9.1633 H   0  0  0  0  0  0  0  0  0  0  0  0
    0.1413   32.7911   10.8513 H   0  0  0  0  0  0  0  0  0  0  0  0
    1.8702   32.8321   10.4305 H   0  0  0  0  0  0  0  0  0  0  0  0
   -0.4707   36.4274   10.2752 H   0  0  0  0  0  0  0  0  0  0  0  0
   -1.2283   34.8878   10.7511 H   0  0  0  0  0  0  0  0  0  0  0  0
   -0.7116   35.1440    9.0661 H   0  0  0  0  0  0  0  0  0  0  0  0
    4.1631   36.6969   11.0164 H   0  0  0  0  0  0  0  0  0  0  0  0
    5.3684   38.3770   12.2753 H   0  0  0  0  0  0  0  0  0  0  0  0
    4.0442   38.4095   13.4582 H   0  0  0  0  0  0  0  0  0  0  0  0
    4.2575   39.6578   10.7398 H   0  0  0  0  0  0  0  0  0  0  0  0
    3.6991   40.4841   13.5146 H   0  0  0  0  0  0  0  0  0  0  0  0
    2.4687   41.0971   12.3966 H   0  0  0  0  0  0  0  0  0  0  0  0
    2.2360   38.2175   10.5002 H   0  0  0  0  0  0  0  0  0  0  0  0
    1.8352   39.9449   10.5189 H   0  0  0  0  0  0  0  0  0  0  0  0
    1.5497   38.9552   11.9724 H   0  0  0  0  0  0  0  0  0  0  0  0
    4.3018   42.7039   12.6463 H   0  0  0  0  0  0  0  0  0  0  0  0
    4.2339   42.0931   10.9760 H   0  0  0  0  0  0  0  0  0  0  0  0
    5.4760   41.4822   12.0986 H   0  0  0  0  0  0  0  0  0  0  0  0
  1  2  2  0  0  0  0
  1  3  1  0  0  0  0
  1 26  1  0  0  0  0
  3  4  1  0  0  0  0
  3 15  1  0  0  0  0
  3 61  1  0  0  0  0
  4  5  1  0  0  0  0
  4 62  1  0  0  0  0
  4 63  1  0  0  0  0
  5  6  2  0  0  0  0
  5 14  1  0  0  0  0
  6  7  1  0  0  0  0
  6 64  1  0  0  0  0
  7  8  2  0  0  0  0
  7 65  1  0  0  0  0
  8  9  1  0  0  0  0
  8 66  1  0  0  0  0
  9 10  2  0  0  0  0
  9 14  1  0  0  0  0
 10 11  1  0  0  0  0
 10 67  1  0  0  0  0
 11 12  2  0  0  0  0
 11 68  1  0  0  0  0
 12 13  1  0  0  0  0
 12 69  1  0  0  0  0
 13 14  2  0  0  0  0
 13 70  1  0  0  0  0
 15 16  1  0  0  0  0
 15 71  1  0  0  0  0
 15 72  1  0  0  0  0
 16 17  2  0  0  0  0
 16 25  1  0  0  0  0
 17 18  1  0  0  0  0
 17 73  1  0  0  0  0
 18 19  2  0  0  0  0
 18 74  1  0  0  0  0
 19 20  1  0  0  0  0
 19 75  1  0  0  0  0
 20 21  2  0  0  0  0
 20 25  1  0  0  0  0
 21 22  1  0  0  0  0
 21 76  1  0  0  0  0
 22 23  2  0  0  0  0
 22 77  1  0  0  0  0
 23 24  1  0  0  0  0
 23 78  1  0  0  0  0
 24 25  2  0  0  0  0
 24 79  1  0  0  0  0
 26 27  1  0  0  0  0
 26 80  1  0  0  0  0
 27 30  1  0  0  0  0
 27 28  1  0  0  0  0
 27 81  1  6  0  0  0
 28 29  2  0  0  0  0
 28 36  1  0  0  0  0
 30 31  1  0  0  0  0
 30 82  1  0  0  0  0
 30 83  1  0  0  0  0
 31 32  1  0  0  0  0
 31 33  2  0  0  0  0
 32 34  2  0  0  0  0
 32 84  1  0  0  0  0
 33 35  1  0  0  0  0
 33 85  1  0  0  0  0
 34 35  1  0  0  0  0
 34 86  1  0  0  0  0
 36 37  1  0  0  0  0
 36 87  1  0  0  0  0
 37 38  1  0  0  0  0
 37 45  1  0  0  0  0
 37 88  1  1  0  0  0
 38 39  1  0  0  0  0
 38 89  1  0  0  0  0
 38 90  1  0  0  0  0
 39 40  1  0  0  0  0
 39 41  1  0  0  0  0
 39 91  1  0  0  0  0
 40 42  1  0  0  0  0
 40 92  1  0  0  0  0
 40 93  1  0  0  0  0
 41 43  1  0  0  0  0
 41 94  1  0  0  0  0
 41 95  1  0  0  0  0
 42 44  1  0  0  0  0
 42 96  1  0  0  0  0
 42 97  1  0  0  0  0
 43 44  1  0  0  0  0
 43 98  1  0  0  0  0
 43 99  1  0  0  0  0
 44100  1  0  0  0  0
 44101  1  0  0  0  0
 45 46  1  0  0  0  0
 45 47  1  0  0  0  0
 45102  1  6  0  0  0
 46103  1  0  0  0  0
 47 48  1  0  0  0  0
 47104  1  0  0  0  0
 47105  1  0  0  0  0
 48 49  1  0  0  0  0
 48 53  1  0  0  0  0
 48106  1  6  0  0  0
 49 50  1  0  0  0  0
 49107  1  0  0  0  0
 49108  1  0  0  0  0
 50 51  1  0  0  0  0
 50 52  1  0  0  0  0
 50109  1  0  0  0  0
 51110  1  0  0  0  0
 51111  1  0  0  0  0
 51112  1  0  0  0  0
 52113  1  0  0  0  0
 52114  1  0  0  0  0
 52115  1  0  0  0  0
 53 54  2  0  0  0  0
 53 55  1  0  0  0  0
 55 56  1  0  0  0  0
 55116  1  0  0  0  0
 56 57  1  0  0  0  0
 56117  1  0  0  0  0
 56118  1  0  0  0  0
 57 58  1  0  0  0  0
 57 59  1  0  0  0  0
 57119  1  6  0  0  0
 58 60  1  0  0  0  0
 58120  1  0  0  0  0
 58121  1  0  0  0  0
 59122  1  0  0  0  0
 59123  1  0  0  0  0
 59124  1  0  0  0  0
 60125  1  0  0  0  0
 60126  1  0  0  0  0
 60127  1  0  0  0  0
M  CHG  1  32   1
M  END
$$$$
