10O
 OpenBabel04111919113D

 56 60  0  0  1  0  0  0  0  0999 V2000
   21.8687   10.4156   21.5714 C   0  0  2  0  0  0  0  0  0  0  0  0
   21.1758   11.6903   22.0497 C   0  0  2  0  0  0  0  0  0  0  0  0
   22.4645   11.3290   24.1770 N   0  0  0  0  0  0  0  0  0  0  0  0
   22.4768   10.0008   23.9423 C   0  0  0  0  0  0  0  0  0  0  0  0
   21.8150   12.2489   23.2898 C   0  0  0  0  0  0  0  0  0  0  0  0
   22.2000    9.5224   22.7198 N   0  0  0  0  0  0  0  0  0  0  0  0
   23.1526   10.7301   20.7951 C   0  0  0  0  0  0  0  0  0  0  0  0
   19.5255   10.1571   21.3605 N   0  0  0  0  0  0  0  0  0  0  0  0
   20.7672    9.7332   20.7116 C   0  0  0  0  0  0  0  0  0  0  0  0
   19.7080   11.2990   22.2432 C   0  0  0  0  0  0  0  0  0  0  0  0
   24.4672   10.6115   21.2087 C   0  0  0  0  0  0  0  0  0  0  0  0
   25.4589   11.0555   20.2605 C   0  0  0  0  0  0  0  0  0  0  0  0
   23.1234   11.4246   19.2158 S   0  0  0  0  0  0  0  0  0  0  0  0
   24.8320   11.5147   19.1185 C   0  0  0  0  0  0  0  0  0  0  0  0
   18.3412    9.5498   21.0267 C   0  0  0  0  0  0  0  0  0  0  0  0
   29.7514    9.2630   23.9927 N   0  0  0  0  0  0  0  0  0  0  0  0
   22.7850    9.1247   24.9136 N   0  0  0  0  0  0  0  0  0  0  0  0
   26.9249   11.0373   20.4595 C   0  0  0  0  0  0  0  0  0  0  0  0
   29.3852    9.7721   23.0249 C   0  0  0  0  0  0  0  0  0  0  0  0
   21.7370   13.4380   23.5758 O   0  0  0  0  0  0  0  0  0  0  0  0
   18.4089    8.5641   20.1014 N   0  0  0  0  0  0  0  0  0  0  0  0
   27.4726   10.4281   21.5982 C   0  0  0  0  0  0  0  0  0  0  0  0
   23.1487   11.9107   25.3567 C   0  0  0  0  0  0  0  0  0  0  0  0
   28.8652   10.4026   21.8363 C   0  0  0  0  0  0  0  0  0  0  0  0
   27.8215   11.6164   19.5508 C   0  0  0  0  0  0  0  0  0  0  0  0
   17.1247    9.8830   21.6237 C   0  0  0  0  0  0  0  0  0  0  0  0
   29.2081   11.5929   19.7771 C   0  0  0  0  0  0  0  0  0  0  0  0
   17.2807    7.9127   19.7411 C   0  0  0  0  0  0  0  0  0  0  0  0
   29.7307   10.9884   20.9185 C   0  0  0  0  0  0  0  0  0  0  0  0
   15.9645    9.1932   21.2559 C   0  0  0  0  0  0  0  0  0  0  0  0
   16.0417    8.1894   20.2926 C   0  0  0  0  0  0  0  0  0  0  0  0
   17.3440    6.9100   18.7875 O   0  0  0  0  0  0  0  0  0  0  0  0
   18.6569    6.6888   18.2662 C   0  0  0  0  0  0  0  0  0  0  0  0
   21.2360   12.4609   21.2745 H   0  0  0  0  0  0  0  0  0  0  0  0
   22.1723    8.5162   22.5818 H   0  0  0  0  0  0  0  0  0  0  0  0
   20.8806    8.6406   20.7419 H   0  0  0  0  0  0  0  0  0  0  0  0
   20.7963   10.0479   19.6648 H   0  0  0  0  0  0  0  0  0  0  0  0
   19.0516   12.1333   21.9662 H   0  0  0  0  0  0  0  0  0  0  0  0
   19.4871   11.0121   23.2772 H   0  0  0  0  0  0  0  0  0  0  0  0
   24.7363   10.2246   22.1791 H   0  0  0  0  0  0  0  0  0  0  0  0
   25.2773   11.9129   18.2126 H   0  0  0  0  0  0  0  0  0  0  0  0
   22.7760    8.1253   24.7680 H   0  0  0  0  0  0  0  0  0  0  0  0
   26.8365    9.9598   22.3435 H   0  0  0  0  0  0  0  0  0  0  0  0
   23.6509   11.1409   25.9465 H   0  0  0  0  0  0  0  0  0  0  0  0
   22.4363   12.4264   26.0045 H   0  0  0  0  0  0  0  0  0  0  0  0
   23.9345   12.5987   25.0297 H   0  0  0  0  0  0  0  0  0  0  0  0
   27.4632   12.1045   18.6483 H   0  0  0  0  0  0  0  0  0  0  0  0
   17.0571   10.6634   22.3765 H   0  0  0  0  0  0  0  0  0  0  0  0
   29.8852   12.0516   19.0560 H   0  0  0  0  0  0  0  0  0  0  0  0
   30.8050   10.9716   21.0903 H   0  0  0  0  0  0  0  0  0  0  0  0
   15.0073    9.4387   21.7135 H   0  0  0  0  0  0  0  0  0  0  0  0
   15.1593    7.6400   19.9822 H   0  0  0  0  0  0  0  0  0  0  0  0
   18.6161    5.8836   17.5204 H   0  0  0  0  0  0  0  0  0  0  0  0
   19.3455    6.3674   19.0555 H   0  0  0  0  0  0  0  0  0  0  0  0
   19.0409    7.5826   17.7627 H   0  0  0  0  0  0  0  0  0  0  0  0
   22.9733    9.4289   25.8604 H   0  0  0  0  0  0  0  0  0  0  0  0
  1  2  1  0  0  0  0
  1  6  1  0  0  0  0
  1  7  1  6  0  0  0
  1  9  1  0  0  0  0
  2  5  1  0  0  0  0
  2 10  1  0  0  0  0
  2 34  1  6  0  0  0
  3  4  1  0  0  0  0
  3  5  1  0  0  0  0
  3 23  1  0  0  0  0
  4  6  1  0  0  0  0
  4 17  2  0  0  0  0
  5 20  2  0  0  0  0
  6 35  1  0  0  0  0
  7 11  2  0  0  0  0
  7 13  1  0  0  0  0
  8  9  1  0  0  0  0
  8 10  1  0  0  0  0
  8 15  1  0  0  0  0
  9 36  1  0  0  0  0
  9 37  1  0  0  0  0
 10 38  1  0  0  0  0
 10 39  1  0  0  0  0
 11 12  1  0  0  0  0
 11 40  1  0  0  0  0
 12 14  2  0  0  0  0
 12 18  1  0  0  0  0
 13 14  1  0  0  0  0
 14 41  1  0  0  0  0
 15 21  2  0  0  0  0
 15 26  1  0  0  0  0
 16 19  3  0  0  0  0
 17 42  1  0  0  0  0
 17 56  1  0  0  0  0
 18 22  2  0  0  0  0
 18 25  1  0  0  0  0
 19 24  1  0  0  0  0
 21 28  1  0  0  0  0
 22 24  1  0  0  0  0
 22 43  1  0  0  0  0
 23 44  1  0  0  0  0
 23 45  1  0  0  0  0
 23 46  1  0  0  0  0
 24 29  2  0  0  0  0
 25 27  2  0  0  0  0
 25 47  1  0  0  0  0
 26 30  2  0  0  0  0
 26 48  1  0  0  0  0
 27 29  1  0  0  0  0
 27 49  1  0  0  0  0
 28 31  2  0  0  0  0
 28 32  1  0  0  0  0
 29 50  1  0  0  0  0
 30 31  1  0  0  0  0
 30 51  1  0  0  0  0
 31 52  1  0  0  0  0
 32 33  1  0  0  0  0
 33 53  1  0  0  0  0
 33 54  1  0  0  0  0
 33 55  1  0  0  0  0
M  END
$$$$
