11V
 OpenBabel04111920443D

 62 66  0  0  1  0  0  0  0  0999 V2000
   -5.0750    9.5494   27.5473 C   0  0  0  0  0  0  0  0  0  0  0  0
   -4.7311   11.0115   27.3177 C   0  0  0  0  0  0  0  0  0  0  0  0
   -5.4698   11.5350   26.2084 O   0  0  0  0  0  0  0  0  0  0  0  0
   -6.8938   11.4226   26.3552 C   0  0  0  0  0  0  0  0  0  0  0  0
   -7.3355    9.9802   26.6125 C   0  0  0  0  0  0  0  0  0  0  0  0
   -6.5612    9.4469   27.7945 N   0  3  0  0  0  0  0  0  0  0  0  0
   -6.9633    8.0525   28.1974 C   0  0  0  0  0  0  0  0  0  0  0  0
   -6.6917    7.9258   29.6881 C   0  0  0  0  0  0  0  0  0  0  0  0
   -7.5568    6.5099   30.3629 S   0  0  0  0  0  0  0  0  0  0  0  0
   -6.1450    5.5447   30.8122 C   0  0  0  0  0  0  0  0  0  0  0  0
   -6.3523    4.6782   31.7949 N   0  0  0  0  0  0  0  0  0  0  0  0
   -5.3479    3.8647   32.1727 C   0  0  0  0  0  0  0  0  0  0  0  0
   -5.5274    2.9461   33.1832 N   0  0  0  0  0  0  0  0  0  0  0  0
   -6.5013    3.1436   34.1428 C   0  0  0  0  0  0  0  0  0  0  0  0
   -7.7981    2.7363   33.8456 C   0  0  0  0  0  0  0  0  0  0  0  0
   -8.8091    2.9617   34.7490 C   0  0  0  0  0  0  0  0  0  0  0  0
   -8.4957    3.6082   35.9613 C   0  0  0  0  0  0  0  0  0  0  0  0
   -7.1996    4.0383   36.2552 C   0  0  0  0  0  0  0  0  0  0  0  0
   -6.1927    3.8083   35.3296 C   0  0  0  0  0  0  0  0  0  0  0  0
   -5.0009    5.7322   30.1236 N   0  0  0  0  0  0  0  0  0  0  0  0
   -4.0259    4.9239   30.5624 C   0  0  0  0  0  0  0  0  0  0  0  0
   -4.1292    3.9862   31.5538 C   0  0  0  0  0  0  0  0  0  0  0  0
   -2.8649    3.4042   31.6727 C   0  0  0  0  0  0  0  0  0  0  0  0
   -1.9922    3.9199   30.8008 N   0  0  0  0  0  0  0  0  0  0  0  0
   -2.7330    4.8392   30.1302 N   0  3  0  0  0  0  0  0  0  0  0  0
   -2.1587    5.6912   29.1136 C   0  0  0  0  0  0  0  0  0  0  0  0
   -1.1696    6.6882   29.6959 C   0  0  2  0  0  0  0  0  0  0  0  0
   -1.8859    7.6511   31.0368 Cl  0  0  0  0  0  0  0  0  0  0  0  0
   -0.6609    7.6342   28.6327 C   0  0  0  0  0  0  0  0  0  0  0  0
    0.6816    7.5499   28.2542 C   0  0  0  0  0  0  0  0  0  0  0  0
    1.1901    8.4090   27.2851 C   0  0  0  0  0  0  0  0  0  0  0  0
    0.3667    9.3606   26.6863 C   0  0  0  0  0  0  0  0  0  0  0  0
   -0.9728    9.4561   27.0509 C   0  0  0  0  0  0  0  0  0  0  0  0
   -1.4731    8.5890   28.0110 C   0  0  0  0  0  0  0  0  0  0  0  0
   -4.5688    9.1604   28.4316 H   0  0  0  0  0  0  0  0  0  0  0  0
   -4.8453    8.9325   26.6715 H   0  0  0  0  0  0  0  0  0  0  0  0
   -3.6648   11.0885   27.0928 H   0  0  0  0  0  0  0  0  0  0  0  0
   -4.9275   11.6013   28.2205 H   0  0  0  0  0  0  0  0  0  0  0  0
   -7.3582   11.7668   25.4264 H   0  0  0  0  0  0  0  0  0  0  0  0
   -7.2320   12.0810   27.1642 H   0  0  0  0  0  0  0  0  0  0  0  0
   -7.1144    9.3298   25.7616 H   0  0  0  0  0  0  0  0  0  0  0  0
   -8.3991    9.9338   26.8681 H   0  0  0  0  0  0  0  0  0  0  0  0
   -6.3731    7.3508   27.5946 H   0  0  0  0  0  0  0  0  0  0  0  0
   -8.0247    7.9432   27.9565 H   0  0  0  0  0  0  0  0  0  0  0  0
   -7.0349    8.8180   30.2187 H   0  0  0  0  0  0  0  0  0  0  0  0
   -5.6127    7.8845   29.8503 H   0  0  0  0  0  0  0  0  0  0  0  0
   -4.8544    2.2132   33.3237 H   0  0  0  0  0  0  0  0  0  0  0  0
   -8.0273    2.2844   32.8895 H   0  0  0  0  0  0  0  0  0  0  0  0
   -9.8216    2.6732   34.5413 H   0  0  0  0  0  0  0  0  0  0  0  0
   -9.2819    3.7756   36.6992 H   0  0  0  0  0  0  0  0  0  0  0  0
   -6.9755    4.5406   37.1880 H   0  0  0  0  0  0  0  0  0  0  0  0
   -5.1868    4.1770   35.5135 H   0  0  0  0  0  0  0  0  0  0  0  0
   -2.5955    2.6253   32.3803 H   0  0  0  0  0  0  0  0  0  0  0  0
   -2.9832    6.2085   28.6043 H   0  0  0  0  0  0  0  0  0  0  0  0
   -1.6869    5.0521   28.3584 H   0  0  0  0  0  0  0  0  0  0  0  0
   -0.3161    6.1483   30.1154 H   0  0  0  0  0  0  0  0  0  0  0  0
    1.3456    6.8229   28.7175 H   0  0  0  0  0  0  0  0  0  0  0  0
    2.2373    8.3505   27.0108 H   0  0  0  0  0  0  0  0  0  0  0  0
    0.7934   10.0326   25.9448 H   0  0  0  0  0  0  0  0  0  0  0  0
   -1.6042   10.2051   26.5831 H   0  0  0  0  0  0  0  0  0  0  0  0
   -2.5270    8.6708   28.3198 H   0  0  0  0  0  0  0  0  0  0  0  0
   -6.7818   10.0815   28.5752 H   0  0  0  0  0  0  0  0  0  0  0  0
  1  2  1  0  0  0  0
  1  6  1  0  0  0  0
  1 35  1  0  0  0  0
  1 36  1  0  0  0  0
  2  3  1  0  0  0  0
  2 37  1  0  0  0  0
  2 38  1  0  0  0  0
  3  4  1  0  0  0  0
  4  5  1  0  0  0  0
  4 39  1  0  0  0  0
  4 40  1  0  0  0  0
  5  6  1  0  0  0  0
  5 41  1  0  0  0  0
  5 42  1  0  0  0  0
  6  7  1  0  0  0  0
  6 62  1  0  0  0  0
  7  8  1  0  0  0  0
  7 43  1  0  0  0  0
  7 44  1  0  0  0  0
  8  9  1  0  0  0  0
  8 45  1  0  0  0  0
  8 46  1  0  0  0  0
  9 10  1  0  0  0  0
 10 11  1  0  0  0  0
 10 20  2  0  0  0  0
 11 12  2  0  0  0  0
 12 13  1  0  0  0  0
 12 22  1  0  0  0  0
 13 14  1  0  0  0  0
 13 47  1  0  0  0  0
 14 15  2  0  0  0  0
 14 19  1  0  0  0  0
 15 16  1  0  0  0  0
 15 48  1  0  0  0  0
 16 17  2  0  0  0  0
 16 49  1  0  0  0  0
 17 18  1  0  0  0  0
 17 50  1  0  0  0  0
 18 19  2  0  0  0  0
 18 51  1  0  0  0  0
 19 52  1  0  0  0  0
 20 21  1  0  0  0  0
 21 22  1  0  0  0  0
 21 25  2  0  0  0  0
 22 23  2  0  0  0  0
 23 24  1  0  0  0  0
 23 53  1  0  0  0  0
 24 25  1  0  0  0  0
 25 26  1  0  0  0  0
 26 27  1  0  0  0  0
 26 54  1  0  0  0  0
 26 55  1  0  0  0  0
 27 28  1  0  0  0  0
 27 29  1  0  0  0  0
 27 56  1  1  0  0  0
 29 30  2  0  0  0  0
 29 34  1  0  0  0  0
 30 31  1  0  0  0  0
 30 57  1  0  0  0  0
 31 32  2  0  0  0  0
 31 58  1  0  0  0  0
 32 33  1  0  0  0  0
 32 59  1  0  0  0  0
 33 34  2  0  0  0  0
 33 60  1  0  0  0  0
 34 61  1  0  0  0  0
M  CHG  2   6   1  25   1
M  END
$$$$
