12G
 OpenBabel04111919243D

 49 52  0  0  1  0  0  0  0  0999 V2000
    3.0110   24.4934    1.1076 Cl  0  0  0  0  0  0  0  0  0  0  0  0
    2.2362   23.5229    2.3107 C   0  0  0  0  0  0  0  0  0  0  0  0
    1.4636   24.2048    3.2589 C   0  0  0  0  0  0  0  0  0  0  0  0
    0.7854   23.5079    4.2545 C   0  0  0  0  0  0  0  0  0  0  0  0
    0.8735   22.1201    4.3047 C   0  0  0  0  0  0  0  0  0  0  0  0
    1.6472   21.4314    3.3617 C   0  0  0  0  0  0  0  0  0  0  0  0
    2.3455   22.1200    2.3490 C   0  0  0  0  0  0  0  0  0  0  0  0
    3.1650   21.3646    1.3065 C   0  0  2  0  0  0  0  0  0  0  0  0
    2.3770   20.3668    0.6255 N   0  0  0  0  0  0  0  0  0  0  0  0
    1.3164   20.7029   -0.2282 C   0  0  0  0  0  0  0  0  0  0  0  0
    0.0559   20.1589    0.0239 C   0  0  0  0  0  0  0  0  0  0  0  0
   -1.0295   20.5255   -0.7681 C   0  0  0  0  0  0  0  0  0  0  0  0
   -0.8579   21.4025   -1.8470 C   0  0  0  0  0  0  0  0  0  0  0  0
   -2.0328   21.7682   -2.7181 C   0  0  0  0  0  0  0  0  0  0  0  0
   -2.5629   20.5874   -3.5340 C   0  0  0  0  0  0  0  0  0  0  0  0
   -1.7979   20.1536   -4.4426 O   0  0  0  0  0  0  0  0  0  0  0  0
   -3.7392   20.2219   -3.2377 O   0  0  0  0  0  0  0  0  0  0  0  0
    0.4147   21.9286   -2.1034 C   0  0  0  0  0  0  0  0  0  0  0  0
    1.4949   21.5973   -1.2849 C   0  0  0  0  0  0  0  0  0  0  0  0
    3.0060   19.1323    0.5930 C   0  0  0  0  0  0  0  0  0  0  0  0
    2.6915   18.1204   -0.0093 O   0  0  0  0  0  0  0  0  0  0  0  0
    4.2346   19.2554    1.4174 C   0  0  0  0  0  0  0  0  0  0  0  0
    5.0908   18.2059    1.5685 O   0  0  0  0  0  0  0  0  0  0  0  0
    4.3028   20.5315    1.8511 C   0  0  0  0  0  0  0  0  0  0  0  0
    5.3403   21.2422    2.6192 C   0  0  0  0  0  0  0  0  0  0  0  0
    5.4081   22.4699    2.6192 O   0  0  0  0  0  0  0  0  0  0  0  0
    6.4035   20.5132    3.3275 C   0  0  0  0  0  0  0  0  0  0  0  0
    6.1599   19.5781    4.3396 C   0  0  0  0  0  0  0  0  0  0  0  0
    4.5739   19.1951    4.9000 Cl  0  0  0  0  0  0  0  0  0  0  0  0
    7.2364   18.9129    4.9315 C   0  0  0  0  0  0  0  0  0  0  0  0
    8.5469   19.2067    4.5455 C   0  0  0  0  0  0  0  0  0  0  0  0
    8.7912   20.1690    3.5675 C   0  0  0  0  0  0  0  0  0  0  0  0
    7.7218   20.8226    2.9590 C   0  0  0  0  0  0  0  0  0  0  0  0
    1.3812   25.2892    3.2162 H   0  0  0  0  0  0  0  0  0  0  0  0
    0.1786   24.0451    4.9783 H   0  0  0  0  0  0  0  0  0  0  0  0
    0.3276   21.5689    5.0700 H   0  0  0  0  0  0  0  0  0  0  0  0
    1.6738   20.3450    3.4133 H   0  0  0  0  0  0  0  0  0  0  0  0
    3.5903   22.0266    0.5428 H   0  0  0  0  0  0  0  0  0  0  0  0
   -0.0961   19.4768    0.8548 H   0  0  0  0  0  0  0  0  0  0  0  0
   -2.0151   20.1120   -0.5618 H   0  0  0  0  0  0  0  0  0  0  0  0
   -1.7635   22.5710   -3.4148 H   0  0  0  0  0  0  0  0  0  0  0  0
   -2.8270   22.1742   -2.0784 H   0  0  0  0  0  0  0  0  0  0  0  0
    0.5671   22.5809   -2.9601 H   0  0  0  0  0  0  0  0  0  0  0  0
    2.4732   22.0017   -1.5232 H   0  0  0  0  0  0  0  0  0  0  0  0
    5.8650   18.4471    2.0910 H   0  0  0  0  0  0  0  0  0  0  0  0
    7.0642   18.1660    5.7050 H   0  0  0  0  0  0  0  0  0  0  0  0
    9.3805   18.6900    5.0216 H   0  0  0  0  0  0  0  0  0  0  0  0
    9.8121   20.4139    3.2815 H   0  0  0  0  0  0  0  0  0  0  0  0
    7.9144   21.5792    2.2007 H   0  0  0  0  0  0  0  0  0  0  0  0
  1  2  1  0  0  0  0
  2  3  2  0  0  0  0
  2  7  1  0  0  0  0
  3  4  1  0  0  0  0
  3 34  1  0  0  0  0
  4  5  2  0  0  0  0
  4 35  1  0  0  0  0
  5  6  1  0  0  0  0
  5 36  1  0  0  0  0
  6  7  2  0  0  0  0
  6 37  1  0  0  0  0
  7  8  1  0  0  0  0
  8  9  1  0  0  0  0
  8 24  1  0  0  0  0
  8 38  1  6  0  0  0
  9 10  1  0  0  0  0
  9 20  1  0  0  0  0
 10 11  2  0  0  0  0
 10 19  1  0  0  0  0
 11 12  1  0  0  0  0
 11 39  1  0  0  0  0
 12 13  2  0  0  0  0
 12 40  1  0  0  0  0
 13 14  1  0  0  0  0
 13 18  1  0  0  0  0
 14 15  1  0  0  0  0
 14 41  1  0  0  0  0
 14 42  1  0  0  0  0
 15 16  2  0  0  0  0
 15 17  1  0  0  0  0
 18 19  2  0  0  0  0
 18 43  1  0  0  0  0
 19 44  1  0  0  0  0
 20 21  2  0  0  0  0
 20 22  1  0  0  0  0
 22 23  1  0  0  0  0
 22 24  2  0  0  0  0
 23 45  1  0  0  0  0
 24 25  1  0  0  0  0
 25 26  2  0  0  0  0
 25 27  1  0  0  0  0
 27 28  2  0  0  0  0
 27 33  1  0  0  0  0
 28 29  1  0  0  0  0
 28 30  1  0  0  0  0
 30 31  2  0  0  0  0
 30 46  1  0  0  0  0
 31 32  1  0  0  0  0
 31 47  1  0  0  0  0
 32 33  2  0  0  0  0
 32 48  1  0  0  0  0
 33 49  1  0  0  0  0
M  END
$$$$
