13W
 OpenBabel04111919143D

 40 42  0  0  1  0  0  0  0  0999 V2000
   28.2654   11.2405   18.7357 C   0  0  0  0  0  0  0  0  0  0  0  0
   28.9573   10.8337   19.8827 C   0  0  0  0  0  0  0  0  0  0  0  0
   28.2522   10.4808   21.0394 C   0  0  0  0  0  0  0  0  0  0  0  0
   26.8417   10.5437   21.0255 C   0  0  0  0  0  0  0  0  0  0  0  0
   26.1263   10.9535   19.8820 C   0  0  0  0  0  0  0  0  0  0  0  0
   26.8602   11.2996   18.7365 C   0  0  0  0  0  0  0  0  0  0  0  0
   24.6557   10.9996   19.9196 C   0  0  0  0  0  0  0  0  0  0  0  0
   23.8391   10.4887   20.9849 C   0  0  0  0  0  0  0  0  0  0  0  0
   22.4891   10.6585   20.7955 C   0  0  0  0  0  0  0  0  0  0  0  0
   22.2005   11.4617   19.2893 S   0  0  0  0  0  0  0  0  0  0  0  0
   23.8688   11.5542   18.9300 C   0  0  0  0  0  0  0  0  0  0  0  0
   21.3380   10.2671   21.7185 C   0  0  2  0  0  0  0  0  0  0  0  0
   20.6499   11.5136   22.2649 C   0  0  0  0  0  0  0  0  0  0  0  0
   21.4555   12.1783   23.3480 C   0  0  0  0  0  0  0  0  0  0  0  0
   22.2718   11.3309   24.1713 N   0  0  0  0  0  0  0  0  0  0  0  0
   22.3177    9.9901   23.9836 C   0  0  0  0  0  0  0  0  0  0  0  0
   21.8641    9.4338   22.8370 N   0  0  0  0  0  0  0  0  0  0  0  0
   22.8316    9.1700   24.9213 N   0  0  0  0  0  0  0  0  0  0  0  0
   20.3390    9.3989   20.9265 C   0  0  0  0  0  0  0  0  0  0  0  0
   23.0848   12.0116   25.2154 C   0  0  0  0  0  0  0  0  0  0  0  0
   21.3600   13.3826   23.5804 O   0  0  0  0  0  0  0  0  0  0  0  0
   28.9424   10.0618   22.2273 C   0  0  0  0  0  0  0  0  0  0  0  0
   29.4136    9.7067   23.2420 N   0  0  0  0  0  0  0  0  0  0  0  0
   28.8195   11.5149   17.8349 H   0  0  0  0  0  0  0  0  0  0  0  0
   30.0496   10.7916   19.8752 H   0  0  0  0  0  0  0  0  0  0  0  0
   26.3173   10.2680   21.9397 H   0  0  0  0  0  0  0  0  0  0  0  0
   26.3513   11.6197   17.8286 H   0  0  0  0  0  0  0  0  0  0  0  0
   24.2548   10.0089   21.8605 H   0  0  0  0  0  0  0  0  0  0  0  0
   24.1897   12.0213   18.0020 H   0  0  0  0  0  0  0  0  0  0  0  0
   19.6640   11.2532   22.6657 H   0  0  0  0  0  0  0  0  0  0  0  0
   20.5096   12.2484   21.4644 H   0  0  0  0  0  0  0  0  0  0  0  0
   21.8896    8.4239   22.7205 H   0  0  0  0  0  0  0  0  0  0  0  0
   22.8603    8.1665   24.7980 H   0  0  0  0  0  0  0  0  0  0  0  0
   20.8304    8.4973   20.5309 H   0  0  0  0  0  0  0  0  0  0  0  0
   19.9141    9.9510   20.0801 H   0  0  0  0  0  0  0  0  0  0  0  0
   19.5141    9.0744   21.5704 H   0  0  0  0  0  0  0  0  0  0  0  0
   22.9168   13.0939   25.2070 H   0  0  0  0  0  0  0  0  0  0  0  0
   24.1508   11.8375   25.0201 H   0  0  0  0  0  0  0  0  0  0  0  0
   22.8222   11.6337   26.2079 H   0  0  0  0  0  0  0  0  0  0  0  0
   23.1679    9.5372   25.8036 H   0  0  0  0  0  0  0  0  0  0  0  0
  1  2  2  0  0  0  0
  1  6  1  0  0  0  0
  1 24  1  0  0  0  0
  2  3  1  0  0  0  0
  2 25  1  0  0  0  0
  3  4  2  0  0  0  0
  3 22  1  0  0  0  0
  4  5  1  0  0  0  0
  4 26  1  0  0  0  0
  5  6  2  0  0  0  0
  5  7  1  0  0  0  0
  6 27  1  0  0  0  0
  7  8  1  0  0  0  0
  7 11  2  0  0  0  0
  8  9  2  0  0  0  0
  8 28  1  0  0  0  0
  9 10  1  0  0  0  0
 10 11  1  0  0  0  0
 11 29  1  0  0  0  0
 12  9  1  6  0  0  0
 12 13  1  0  0  0  0
 12 17  1  0  0  0  0
 12 19  1  0  0  0  0
 13 14  1  0  0  0  0
 13 30  1  0  0  0  0
 13 31  1  0  0  0  0
 14 15  1  0  0  0  0
 14 21  2  0  0  0  0
 15 16  1  0  0  0  0
 15 20  1  0  0  0  0
 16 17  1  0  0  0  0
 16 18  2  0  0  0  0
 17 32  1  0  0  0  0
 18 33  1  0  0  0  0
 18 40  1  0  0  0  0
 19 34  1  0  0  0  0
 19 35  1  0  0  0  0
 19 36  1  0  0  0  0
 20 37  1  0  0  0  0
 20 38  1  0  0  0  0
 20 39  1  0  0  0  0
 22 23  3  0  0  0  0
M  END
$$$$
