15T
 OpenBabel04111919353D

 48 51  0  0  1  0  0  0  0  0999 V2000
   10.9338   57.1665   -1.8345 C   0  0  0  0  0  0  0  0  0  0  0  0
    9.9648   56.5770   -0.8131 C   0  0  1  0  0  0  0  0  0  0  0  0
   10.6004   56.3024    0.4362 O   0  0  0  0  0  0  0  0  0  0  0  0
    8.8488   57.5487   -0.5379 C   0  0  0  0  0  0  0  0  0  0  0  0
    7.6352   57.2550    0.1042 N   0  3  0  0  0  0  0  0  0  0  0  0
    6.9115   58.4231    0.1520 C   0  0  0  0  0  0  0  0  0  0  0  0
    7.7159   59.3698   -0.4738 C   0  0  0  0  0  0  0  0  0  0  0  0
    8.8884   58.8160   -0.8905 N   0  0  0  0  0  0  0  0  0  0  0  0
    7.2715   60.6925   -0.6073 C   0  0  0  0  0  0  0  0  0  0  0  0
    6.0573   61.1117   -0.1439 N   0  0  0  0  0  0  0  0  0  0  0  0
    5.3011   60.1650    0.4531 C   0  0  0  0  0  0  0  0  0  0  0  0
    5.6768   58.8386    0.6235 C   0  0  0  0  0  0  0  0  0  0  0  0
    4.5923   58.1937    1.2871 C   0  0  0  0  0  0  0  0  0  0  0  0
    3.5943   59.1349    1.4877 C   0  0  0  0  0  0  0  0  0  0  0  0
    4.0368   60.3400    0.9882 N   0  3  0  0  0  0  0  0  0  0  0  0
    7.3398   55.9109    0.6014 C   0  0  1  0  0  0  0  0  0  0  0  0
    7.0920   55.9282    2.1062 C   0  0  0  0  0  0  0  0  0  0  0  0
    6.7997   54.5274    2.6256 C   0  0  0  0  0  0  0  0  0  0  0  0
    5.6505   53.8344    1.8702 C   0  0  1  0  0  0  0  0  0  0  0  0
    5.9178   53.8438    0.3563 C   0  0  0  0  0  0  0  0  0  0  0  0
    6.1702   55.2654   -0.1491 C   0  0  0  0  0  0  0  0  0  0  0  0
    5.5372   52.3985    2.4183 C   0  0  0  0  0  0  0  0  0  0  0  0
    4.1199   51.8274    2.3797 C   0  0  0  0  0  0  0  0  0  0  0  0
    3.8026   51.3258    1.0528 C   0  0  0  0  0  0  0  0  0  0  0  0
    3.5932   50.9894   -0.0554 N   0  0  0  0  0  0  0  0  0  0  0  0
   10.4051   57.3761   -2.7778 H   0  0  0  0  0  0  0  0  0  0  0  0
   11.7494   56.4648   -2.0358 H   0  0  0  0  0  0  0  0  0  0  0  0
   11.3643   58.1062   -1.4611 H   0  0  0  0  0  0  0  0  0  0  0  0
    9.5595   55.6497   -1.2230 H   0  0  0  0  0  0  0  0  0  0  0  0
   11.3170   55.6631    0.2946 H   0  0  0  0  0  0  0  0  0  0  0  0
    7.8885   61.4451   -1.0946 H   0  0  0  0  0  0  0  0  0  0  0  0
    4.4846   57.1668    1.6060 H   0  0  0  0  0  0  0  0  0  0  0  0
    2.6200   58.9946    1.9522 H   0  0  0  0  0  0  0  0  0  0  0  0
    3.5205   61.2180    1.0060 H   0  0  0  0  0  0  0  0  0  0  0  0
    8.2213   55.2625    0.4285 H   0  0  0  0  0  0  0  0  0  0  0  0
    6.2413   56.5749    2.3257 H   0  0  0  0  0  0  0  0  0  0  0  0
    7.9676   56.3443    2.6243 H   0  0  0  0  0  0  0  0  0  0  0  0
    6.5414   54.5801    3.6931 H   0  0  0  0  0  0  0  0  0  0  0  0
    7.7083   53.9130    2.5234 H   0  0  0  0  0  0  0  0  0  0  0  0
    4.7141   54.3787    2.0598 H   0  0  0  0  0  0  0  0  0  0  0  0
    5.0590   53.4164   -0.1752 H   0  0  0  0  0  0  0  0  0  0  0  0
    6.8014   53.2237    0.1379 H   0  0  0  0  0  0  0  0  0  0  0  0
    6.3815   55.2412   -1.2264 H   0  0  0  0  0  0  0  0  0  0  0  0
    5.2665   55.8639    0.0087 H   0  0  0  0  0  0  0  0  0  0  0  0
    5.8785   52.4013    3.4638 H   0  0  0  0  0  0  0  0  0  0  0  0
    6.2053   51.7483    1.8395 H   0  0  0  0  0  0  0  0  0  0  0  0
    3.3997   52.6059    2.6543 H   0  0  0  0  0  0  0  0  0  0  0  0
    4.0423   51.0050    3.1043 H   0  0  0  0  0  0  0  0  0  0  0  0
  1  2  1  0  0  0  0
  1 26  1  0  0  0  0
  1 27  1  0  0  0  0
  1 28  1  0  0  0  0
  2  3  1  0  0  0  0
  2  4  1  0  0  0  0
  2 29  1  6  0  0  0
  3 30  1  0  0  0  0
  4  5  2  0  0  0  0
  4  8  1  0  0  0  0
  5  6  1  0  0  0  0
  5 16  1  0  0  0  0
  6  7  1  0  0  0  0
  6 12  2  0  0  0  0
  7  8  1  0  0  0  0
  7  9  2  0  0  0  0
  9 10  1  0  0  0  0
  9 31  1  0  0  0  0
 10 11  1  0  0  0  0
 11 12  1  0  0  0  0
 11 15  2  0  0  0  0
 12 13  1  0  0  0  0
 13 14  2  0  0  0  0
 13 32  1  0  0  0  0
 14 15  1  0  0  0  0
 14 33  1  0  0  0  0
 15 34  1  0  0  0  0
 16 17  1  0  0  0  0
 16 21  1  0  0  0  0
 16 35  1  6  0  0  0
 17 18  1  0  0  0  0
 17 36  1  0  0  0  0
 17 37  1  0  0  0  0
 18 19  1  0  0  0  0
 18 38  1  0  0  0  0
 18 39  1  0  0  0  0
 19 20  1  0  0  0  0
 19 22  1  0  0  0  0
 19 40  1  1  0  0  0
 20 21  1  0  0  0  0
 20 41  1  0  0  0  0
 20 42  1  0  0  0  0
 21 43  1  0  0  0  0
 21 44  1  0  0  0  0
 22 23  1  0  0  0  0
 22 45  1  0  0  0  0
 22 46  1  0  0  0  0
 23 24  1  0  0  0  0
 23 47  1  0  0  0  0
 23 48  1  0  0  0  0
 24 25  3  0  0  0  0
M  CHG  2   5   1  15   1
M  END
$$$$
