15V
 OpenBabel04111919163D

 38 41  0  0  0  0  0  0  0  0999 V2000
   62.8148   11.1328    3.1977 C   0  0  0  0  0  0  0  0  0  0  0  0
   57.5051    9.1951    1.0661 C   0  0  0  0  0  0  0  0  0  0  0  0
   60.1828   11.2496    5.5504 C   0  0  0  0  0  0  0  0  0  0  0  0
   61.1622   12.0608    6.1356 C   0  0  0  0  0  0  0  0  0  0  0  0
   56.4844    8.6607    3.1881 C   0  0  0  0  0  0  0  0  0  0  0  0
   58.8755   10.9640    6.0607 C   0  0  0  0  0  0  0  0  0  0  0  0
   54.7660    9.4278    6.1188 C   0  0  0  0  0  0  0  0  0  0  0  0
   55.9970   10.0331    6.4409 C   0  0  0  0  0  0  0  0  0  0  0  0
   56.8091    9.7993    5.3624 C   0  0  0  0  0  0  0  0  0  0  0  0
   53.5659    9.4436    6.9923 C   0  0  0  0  0  0  0  0  0  0  0  0
   57.0787    9.5970    2.3283 C   0  0  0  0  0  0  0  0  0  0  0  0
   60.2201   10.0083    3.3784 N   0  0  0  0  0  0  0  0  0  0  0  0
   62.0071   11.3783    4.3005 N   0  3  0  0  0  0  0  0  0  0  0  0
   60.7298   10.8147    4.3681 C   0  0  0  0  0  0  0  0  0  0  0  0
   62.2684   12.1383    5.3972 N   0  0  0  0  0  0  0  0  0  0  0  0
   56.6405    5.2921    1.0612 Cl  0  0  0  0  0  0  0  0  0  0  0  0
   56.7988    6.9320    1.5540 C   0  0  0  0  0  0  0  0  0  0  0  0
   57.3728    7.8602    0.6808 C   0  0  0  0  0  0  0  0  0  0  0  0
   56.3441    7.3242    2.8115 C   0  0  0  0  0  0  0  0  0  0  0  0
   56.0495    9.0722    4.4641 N   0  3  0  0  0  0  0  0  0  0  0  0
   54.8077    8.8011    4.9336 N   0  0  0  0  0  0  0  0  0  0  0  0
   58.1470   10.1518    5.1829 N   0  0  0  0  0  0  0  0  0  0  0  0
   58.4214   11.4044    7.1118 O   0  0  0  0  0  0  0  0  0  0  0  0
   61.0081    9.7996    2.3641 C   0  0  0  0  0  0  0  0  0  0  0  0
   62.3788   10.3531    2.1966 C   0  0  0  0  0  0  0  0  0  0  0  0
   63.7863   11.6069    3.2097 H   0  0  0  0  0  0  0  0  0  0  0  0
   57.9204    9.9253    0.3755 H   0  0  0  0  0  0  0  0  0  0  0  0
   61.1012   12.6035    7.0750 H   0  0  0  0  0  0  0  0  0  0  0  0
   56.2145   10.5512    7.3640 H   0  0  0  0  0  0  0  0  0  0  0  0
   52.7024    8.9335    6.5587 H   0  0  0  0  0  0  0  0  0  0  0  0
   53.2860   10.4817    7.2062 H   0  0  0  0  0  0  0  0  0  0  0  0
   53.8093    8.9695    7.9493 H   0  0  0  0  0  0  0  0  0  0  0  0
   57.1700   10.6469    2.6052 H   0  0  0  0  0  0  0  0  0  0  0  0
   57.7050    7.5511   -0.3078 H   0  0  0  0  0  0  0  0  0  0  0  0
   55.9226    6.5966    3.5014 H   0  0  0  0  0  0  0  0  0  0  0  0
   58.6152    9.8084    4.3367 H   0  0  0  0  0  0  0  0  0  0  0  0
   60.6546    9.1610    1.5353 H   0  0  0  0  0  0  0  0  0  0  0  0
   62.9485   10.1178    1.3122 H   0  0  0  0  0  0  0  0  0  0  0  0
  1 13  2  0  0  0  0
  1 25  1  0  0  0  0
  1 26  1  0  0  0  0
  2 11  2  0  0  0  0
  2 18  1  0  0  0  0
  2 27  1  0  0  0  0
  3  4  2  0  0  0  0
  3  6  1  0  0  0  0
  3 14  1  0  0  0  0
  4 15  1  0  0  0  0
  4 28  1  0  0  0  0
  5 11  1  0  0  0  0
  5 19  2  0  0  0  0
  5 20  1  0  0  0  0
  6 22  1  0  0  0  0
  6 23  2  0  0  0  0
  7  8  2  0  0  0  0
  7 10  1  0  0  0  0
  7 21  1  0  0  0  0
  8  9  1  0  0  0  0
  8 29  1  0  0  0  0
  9 20  2  0  0  0  0
  9 22  1  0  0  0  0
 10 30  1  0  0  0  0
 10 31  1  0  0  0  0
 10 32  1  0  0  0  0
 11 33  1  0  0  0  0
 12 14  2  0  0  0  0
 12 24  1  0  0  0  0
 13 14  1  0  0  0  0
 13 15  1  0  0  0  0
 16 17  1  0  0  0  0
 17 18  2  0  0  0  0
 17 19  1  0  0  0  0
 18 34  1  0  0  0  0
 19 35  1  0  0  0  0
 20 21  1  0  0  0  0
 22 36  1  0  0  0  0
 24 25  2  0  0  0  0
 24 37  1  0  0  0  0
 25 38  1  0  0  0  0
M  CHG  2  13   1  20   1
M  END
$$$$
