17C
 OpenBabel04111919303D

 28 29  0  0  0  0  0  0  0  0999 V2000
    7.6268    3.8776   27.1475 O   0  0  0  0  0  0  0  0  0  0  0  0
    3.4501    1.0871   29.4101 O   0  0  0  0  0  0  0  0  0  0  0  0
    8.6531    3.1827   25.2591 O   0  0  0  0  0  0  0  0  0  0  0  0
    4.8658    2.5246   28.4121 O   0  0  0  0  0  0  0  0  0  0  0  0
   10.7461    0.0905   28.5642 C   0  0  0  0  0  0  0  0  0  0  0  0
    7.1250    1.1366   32.7700 C   0  0  0  0  0  0  0  0  0  0  0  0
   11.1676    0.6360   27.3639 C   0  0  0  0  0  0  0  0  0  0  0  0
    5.7481    1.0204   32.8801 C   0  0  0  0  0  0  0  0  0  0  0  0
    9.5286    0.4969   29.1161 C   0  0  0  0  0  0  0  0  0  0  0  0
    7.6939    1.4638   31.5353 C   0  0  0  0  0  0  0  0  0  0  0  0
   10.3667    1.5791   26.7276 C   0  0  0  0  0  0  0  0  0  0  0  0
    4.9543    1.2314   31.7576 C   0  0  0  0  0  0  0  0  0  0  0  0
    7.5098    1.8980   29.1221 N   0  0  0  0  0  0  0  0  0  0  0  0
    8.3953    3.0983   26.5082 C   0  0  0  0  0  0  0  0  0  0  0  0
    4.5544    1.7276   29.3386 C   0  0  0  0  0  0  0  0  0  0  0  0
    8.7139    1.4831   28.5158 C   0  0  0  0  0  0  0  0  0  0  0  0
    6.9151    1.6689   30.3788 C   0  0  0  0  0  0  0  0  0  0  0  0
    9.1457    2.0330   27.2867 C   0  0  0  0  0  0  0  0  0  0  0  0
    5.5136    1.5474   30.4996 C   0  0  0  0  0  0  0  0  0  0  0  0
   11.3456   -0.6574   29.0706 H   0  0  0  0  0  0  0  0  0  0  0  0
    7.7594    0.9774   33.6343 H   0  0  0  0  0  0  0  0  0  0  0  0
   12.1001    0.3266   26.9093 H   0  0  0  0  0  0  0  0  0  0  0  0
    5.2834    0.7745   33.8271 H   0  0  0  0  0  0  0  0  0  0  0  0
    9.2016    0.0018   30.0233 H   0  0  0  0  0  0  0  0  0  0  0  0
    8.7709    1.5894   31.4828 H   0  0  0  0  0  0  0  0  0  0  0  0
   10.6820    1.9982   25.7730 H   0  0  0  0  0  0  0  0  0  0  0  0
    3.8709    1.1445   31.8302 H   0  0  0  0  0  0  0  0  0  0  0  0
    6.9082    2.4801   28.4988 H   0  0  0  0  0  0  0  0  0  0  0  0
  1 14  2  0  0  0  0
  2 15  2  0  0  0  0
  3 14  1  0  0  0  0
  4 15  1  0  0  0  0
  5  7  2  0  0  0  0
  5  9  1  0  0  0  0
  5 20  1  0  0  0  0
  6  8  2  0  0  0  0
  6 10  1  0  0  0  0
  6 21  1  0  0  0  0
  7 11  1  0  0  0  0
  7 22  1  0  0  0  0
  8 12  1  0  0  0  0
  8 23  1  0  0  0  0
  9 16  2  0  0  0  0
  9 24  1  0  0  0  0
 10 17  2  0  0  0  0
 10 25  1  0  0  0  0
 11 18  2  0  0  0  0
 11 26  1  0  0  0  0
 12 19  2  0  0  0  0
 12 27  1  0  0  0  0
 13 16  1  0  0  0  0
 13 17  1  0  0  0  0
 13 28  1  0  0  0  0
 14 18  1  0  0  0  0
 15 19  1  0  0  0  0
 16 18  1  0  0  0  0
 17 19  1  0  0  0  0
M  END
$$$$
