19G
 OpenBabel04111919173D

 43 45  0  0  0  0  0  0  0  0999 V2000
   34.1740   -8.1197   18.8762 O   0  0  0  0  0  0  0  0  0  0  0  0
   35.1208   -8.3308   19.6955 C   0  0  0  0  0  0  0  0  0  0  0  0
   36.2264   -8.8919   19.4066 O   0  0  0  0  0  0  0  0  0  0  0  0
   34.9194   -7.8855   21.1125 C   0  0  0  0  0  0  0  0  0  0  0  0
   33.3718   -7.4400   21.6998 S   0  0  0  0  0  0  0  0  0  0  0  0
   33.9595   -7.0955   23.2712 C   0  0  0  0  0  0  0  0  0  0  0  0
   33.2047   -6.6539   24.3777 C   0  0  0  0  0  0  0  0  0  0  0  0
   33.8541   -6.3866   25.5851 C   0  0  0  0  0  0  0  0  0  0  0  0
   35.2264   -6.5535   25.6919 C   0  0  0  0  0  0  0  0  0  0  0  0
   35.9646   -6.9988   24.5933 C   0  0  0  0  0  0  0  0  0  0  0  0
   35.3374   -7.2902   23.3530 C   0  0  0  0  0  0  0  0  0  0  0  0
   35.8992   -7.7665   22.0972 C   0  0  0  0  0  0  0  0  0  0  0  0
   37.3809   -8.0115   21.9053 C   0  0  0  0  0  0  0  0  0  0  0  0
   37.8003   -9.4779   22.0532 C   0  0  0  0  0  0  0  0  0  0  0  0
   37.8111   -9.9864   23.4946 C   0  0  0  0  0  0  0  0  0  0  0  0
   38.7887   -9.2689   24.2590 O   0  0  0  0  0  0  0  0  0  0  0  0
   38.9436   -9.6322   25.5690 C   0  0  0  0  0  0  0  0  0  0  0  0
   38.0540  -10.4125   26.3077 C   0  0  0  0  0  0  0  0  0  0  0  0
   38.3025  -10.7081   27.6614 C   0  0  0  0  0  0  0  0  0  0  0  0
   37.3011  -11.5368   28.4223 C   0  0  0  0  0  0  0  0  0  0  0  0
   39.4667  -10.2088   28.2714 C   0  0  0  0  0  0  0  0  0  0  0  0
   39.7874  -10.5736   29.9392 Cl  0  0  0  0  0  0  0  0  0  0  0  0
   40.3735   -9.4244   27.5403 C   0  0  0  0  0  0  0  0  0  0  0  0
   41.6275   -8.8784   28.1673 C   0  0  0  0  0  0  0  0  0  0  0  0
   40.0949   -9.1398   26.1929 C   0  0  0  0  0  0  0  0  0  0  0  0
   32.1307   -6.5163   24.2876 H   0  0  0  0  0  0  0  0  0  0  0  0
   33.2816   -6.0410   26.4395 H   0  0  0  0  0  0  0  0  0  0  0  0
   35.7357   -6.3374   26.6265 H   0  0  0  0  0  0  0  0  0  0  0  0
   37.0391   -7.1220   24.6946 H   0  0  0  0  0  0  0  0  0  0  0  0
   37.9538   -7.3911   22.6046 H   0  0  0  0  0  0  0  0  0  0  0  0
   37.6791   -7.6430   20.9173 H   0  0  0  0  0  0  0  0  0  0  0  0
   38.8138   -9.5745   21.6447 H   0  0  0  0  0  0  0  0  0  0  0  0
   37.1456  -10.1282   21.4633 H   0  0  0  0  0  0  0  0  0  0  0  0
   38.0839  -11.0491   23.4815 H   0  0  0  0  0  0  0  0  0  0  0  0
   36.8126   -9.8769   23.9285 H   0  0  0  0  0  0  0  0  0  0  0  0
   37.1436  -10.7902   25.8548 H   0  0  0  0  0  0  0  0  0  0  0  0
   36.4559  -11.8329   27.7911 H   0  0  0  0  0  0  0  0  0  0  0  0
   36.8964  -10.9653   29.2637 H   0  0  0  0  0  0  0  0  0  0  0  0
   37.7707  -12.4534   28.7918 H   0  0  0  0  0  0  0  0  0  0  0  0
   42.2154   -8.2918   27.4541 H   0  0  0  0  0  0  0  0  0  0  0  0
   42.2640   -9.6962   28.5212 H   0  0  0  0  0  0  0  0  0  0  0  0
   41.3783   -8.2204   29.0066 H   0  0  0  0  0  0  0  0  0  0  0  0
   40.7780   -8.5269   25.6066 H   0  0  0  0  0  0  0  0  0  0  0  0
  1  2  2  0  0  0  0
  2  3  1  0  0  0  0
  2  4  1  0  0  0  0
  4  5  1  0  0  0  0
  4 12  2  0  0  0  0
  5  6  1  0  0  0  0
  6  7  2  0  0  0  0
  6 11  1  0  0  0  0
  7  8  1  0  0  0  0
  7 26  1  0  0  0  0
  8  9  2  0  0  0  0
  8 27  1  0  0  0  0
  9 10  1  0  0  0  0
  9 28  1  0  0  0  0
 10 11  2  0  0  0  0
 10 29  1  0  0  0  0
 11 12  1  0  0  0  0
 12 13  1  0  0  0  0
 13 14  1  0  0  0  0
 13 30  1  0  0  0  0
 13 31  1  0  0  0  0
 14 15  1  0  0  0  0
 14 32  1  0  0  0  0
 14 33  1  0  0  0  0
 15 16  1  0  0  0  0
 15 34  1  0  0  0  0
 15 35  1  0  0  0  0
 16 17  1  0  0  0  0
 17 18  2  0  0  0  0
 17 25  1  0  0  0  0
 18 19  1  0  0  0  0
 18 36  1  0  0  0  0
 19 20  1  0  0  0  0
 19 21  2  0  0  0  0
 20 37  1  0  0  0  0
 20 38  1  0  0  0  0
 20 39  1  0  0  0  0
 21 22  1  0  0  0  0
 21 23  1  0  0  0  0
 23 24  1  0  0  0  0
 23 25  2  0  0  0  0
 24 40  1  0  0  0  0
 24 41  1  0  0  0  0
 24 42  1  0  0  0  0
 25 43  1  0  0  0  0
M  END
$$$$
