19X
 OpenBabel04111919193D

 51 55  0  0  1  0  0  0  0  0999 V2000
    6.3182    0.7407  -16.4461 O   0  0  0  0  0  0  0  0  0  0  0  0
    6.0272    0.1649  -15.4526 C   0  0  0  0  0  0  0  0  0  0  0  0
    6.7987    0.1978  -14.1920 C   0  0  0  0  0  0  0  0  0  0  0  0
    7.9677    0.8801  -13.8907 C   0  0  0  0  0  0  0  0  0  0  0  0
    4.9092   -0.6627  -15.2097 N   0  0  0  0  0  0  0  0  0  0  0  0
    4.8760   -1.1765  -13.8663 C   0  0  0  0  0  0  0  0  0  0  0  0
    6.1170   -0.5921  -13.2636 C   0  0  0  0  0  0  0  0  0  0  0  0
    6.5856   -0.7528  -11.9801 C   0  0  0  0  0  0  0  0  0  0  0  0
    7.7796   -0.1127  -11.6649 C   0  0  0  0  0  0  0  0  0  0  0  0
    8.4520    0.7188  -12.5881 C   0  0  0  0  0  0  0  0  0  0  0  0
    9.9934    1.4938  -12.2104 S   0  0  0  0  0  0  0  0  0  0  0  0
    9.9908    1.9328  -10.5000 C   0  0  0  0  0  0  0  0  0  0  0  0
   11.2281    2.1891  -10.0358 N   0  0  0  0  0  0  0  0  0  0  0  0
   11.2566    2.6541   -8.7861 C   0  0  0  0  0  0  0  0  0  0  0  0
    8.8272    2.0343   -9.8283 N   0  0  0  0  0  0  0  0  0  0  0  0
    8.8422    2.4356   -8.5351 C   0  0  0  0  0  0  0  0  0  0  0  0
    7.6131    2.3420   -7.8951 N   0  0  0  0  0  0  0  0  0  0  0  0
    7.4783    2.2051   -6.4624 C   0  0  0  0  0  0  0  0  0  0  0  0
    6.3048    1.2482   -6.2666 C   0  0  2  0  0  0  0  0  0  0  0  0
    6.7683   -0.1643   -6.1166 N   0  3  0  0  0  0  0  0  0  0  0  0
    5.5033    1.3361   -7.5544 C   0  0  0  0  0  0  0  0  0  0  0  0
    6.4062    1.9440   -8.6313 C   0  0  0  0  0  0  0  0  0  0  0  0
   10.1380    2.8125   -7.9715 C   0  0  0  0  0  0  0  0  0  0  0  0
   10.7106    3.3537   -6.7480 C   0  0  0  0  0  0  0  0  0  0  0  0
    9.8523    3.9088   -5.3707 Cl  0  0  0  0  0  0  0  0  0  0  0  0
   12.0960    3.4654   -6.8441 C   0  0  0  0  0  0  0  0  0  0  0  0
   12.4262    3.0535   -8.1299 N   0  3  0  0  0  0  0  0  0  0  0  0
   13.0917    3.9254   -5.7851 C   0  0  0  0  0  0  0  0  0  0  0  0
   14.0828    4.9747   -6.2531 C   0  0  0  0  0  0  0  0  0  0  0  0
    8.4975    1.5100  -14.6126 H   0  0  0  0  0  0  0  0  0  0  0  0
    4.2239   -0.8519  -15.9425 H   0  0  0  0  0  0  0  0  0  0  0  0
    4.9109   -2.2713  -13.8570 H   0  0  0  0  0  0  0  0  0  0  0  0
    3.9863   -0.8247  -13.3308 H   0  0  0  0  0  0  0  0  0  0  0  0
    6.0576   -1.3490  -11.2432 H   0  0  0  0  0  0  0  0  0  0  0  0
    8.2097   -0.2517  -10.6796 H   0  0  0  0  0  0  0  0  0  0  0  0
    7.2361    3.1683   -5.9995 H   0  0  0  0  0  0  0  0  0  0  0  0
    8.3859    1.7968   -6.0130 H   0  0  0  0  0  0  0  0  0  0  0  0
    5.7133    1.4846   -5.3743 H   0  0  0  0  0  0  0  0  0  0  0  0
    5.9712   -0.8037   -5.9861 H   0  0  0  0  0  0  0  0  0  0  0  0
    7.2805   -0.4656   -6.9593 H   0  0  0  0  0  0  0  0  0  0  0  0
    4.6440    1.9864   -7.3904 H   0  0  0  0  0  0  0  0  0  0  0  0
    5.1599    0.3488   -7.8705 H   0  0  0  0  0  0  0  0  0  0  0  0
    6.6089    1.1991   -9.4159 H   0  0  0  0  0  0  0  0  0  0  0  0
    5.9121    2.8051   -9.1109 H   0  0  0  0  0  0  0  0  0  0  0  0
   13.3726    3.0475   -8.5247 H   0  0  0  0  0  0  0  0  0  0  0  0
   13.6527    3.0664   -5.3886 H   0  0  0  0  0  0  0  0  0  0  0  0
   12.5239    4.3564   -4.9454 H   0  0  0  0  0  0  0  0  0  0  0  0
   14.7427    5.2808   -5.4267 H   0  0  0  0  0  0  0  0  0  0  0  0
   13.5504    5.8571   -6.6184 H   0  0  0  0  0  0  0  0  0  0  0  0
   14.7014    4.5690   -7.0577 H   0  0  0  0  0  0  0  0  0  0  0  0
    7.3964   -0.2767   -5.3102 H   0  0  0  0  0  0  0  0  0  0  0  0
  1  2  2  0  0  0  0
  2  3  1  0  0  0  0
  2  5  1  0  0  0  0
  3  4  2  0  0  0  0
  3  7  1  0  0  0  0
  4 10  1  0  0  0  0
  4 30  1  0  0  0  0
  5  6  1  0  0  0  0
  5 31  1  0  0  0  0
  6  7  1  0  0  0  0
  6 32  1  0  0  0  0
  6 33  1  0  0  0  0
  7  8  2  0  0  0  0
  8  9  1  0  0  0  0
  8 34  1  0  0  0  0
  9 10  2  0  0  0  0
  9 35  1  0  0  0  0
 10 11  1  0  0  0  0
 11 12  1  0  0  0  0
 12 13  1  0  0  0  0
 12 15  2  0  0  0  0
 13 14  1  0  0  0  0
 14 23  1  0  0  0  0
 14 27  2  0  0  0  0
 15 16  1  0  0  0  0
 16 17  1  0  0  0  0
 16 23  2  0  0  0  0
 17 18  1  0  0  0  0
 17 22  1  0  0  0  0
 18 19  1  0  0  0  0
 18 36  1  0  0  0  0
 18 37  1  0  0  0  0
 19 20  1  0  0  0  0
 19 21  1  0  0  0  0
 19 38  1  1  0  0  0
 20 39  1  0  0  0  0
 20 40  1  0  0  0  0
 20 51  1  0  0  0  0
 21 22  1  0  0  0  0
 21 41  1  0  0  0  0
 21 42  1  0  0  0  0
 22 43  1  0  0  0  0
 22 44  1  0  0  0  0
 23 24  1  0  0  0  0
 24 25  1  0  0  0  0
 24 26  2  0  0  0  0
 26 27  1  0  0  0  0
 26 28  1  0  0  0  0
 27 45  1  0  0  0  0
 28 29  1  0  0  0  0
 28 46  1  0  0  0  0
 28 47  1  0  0  0  0
 29 48  1  0  0  0  0
 29 49  1  0  0  0  0
 29 50  1  0  0  0  0
M  CHG  2  20   1  27   1
M  END
$$$$
