1B0
 OpenBabel04111921293D

 59 62  0  0  1  0  0  0  0  0999 V2000
   16.1314   26.7884   -0.2777 O   0  0  0  0  0  0  0  0  0  0  0  0
   15.3145   25.9150    0.0064 C   0  0  0  0  0  0  0  0  0  0  0  0
   15.2359   24.7216   -0.6874 N   0  0  0  0  0  0  0  0  0  0  0  0
   16.1138   24.4523   -1.8388 C   0  0  2  0  0  0  0  0  0  0  0  0
   15.4558   24.9707   -3.1358 C   0  0  0  0  0  0  0  0  0  0  0  0
   16.2810   25.4408   -4.1626 N   0  0  0  0  0  0  0  0  0  0  0  0
   17.6808   25.6142   -4.0195 C   0  0  0  0  0  0  0  0  0  0  0  0
   18.5521   24.6374   -4.5045 C   0  0  0  0  0  0  0  0  0  0  0  0
   19.9280   24.7443   -4.2725 C   0  0  0  0  0  0  0  0  0  0  0  0
   20.4374   25.8381   -3.5713 C   0  0  0  0  0  0  0  0  0  0  0  0
   19.5710   26.8267   -3.1058 C   0  0  0  0  0  0  0  0  0  0  0  0
   18.1943   26.7183   -3.3267 C   0  0  0  0  0  0  0  0  0  0  0  0
   15.6796   25.9050   -5.4080 C   0  0  0  0  0  0  0  0  0  0  0  0
   14.2320   24.8534   -3.2831 O   0  0  0  0  0  0  0  0  0  0  0  0
   16.3371   22.9396   -2.0115 C   0  0  0  0  0  0  0  0  0  0  0  0
   17.2485   22.4176   -0.9301 C   0  0  0  0  0  0  0  0  0  0  0  0
   18.6354   22.4394   -1.1079 C   0  0  0  0  0  0  0  0  0  0  0  0
   19.4757   22.0615   -0.0639 C   0  0  0  0  0  0  0  0  0  0  0  0
   18.9447   21.6667    1.1572 C   0  0  0  0  0  0  0  0  0  0  0  0
   17.5653   21.6436    1.3428 C   0  0  0  0  0  0  0  0  0  0  0  0
   16.7178   22.0165    0.3027 C   0  0  0  0  0  0  0  0  0  0  0  0
   14.2738   26.0842    1.1088 C   0  0  0  0  0  0  0  0  0  0  0  0
   14.8779   26.2159    2.4811 C   0  0  1  0  0  0  0  0  0  0  0  0
   15.1749   27.4633    3.1462 C   0  0  1  0  0  0  0  0  0  0  0  0
   15.0464   28.8270    2.7998 C   0  0  0  0  0  0  0  0  0  0  0  0
   15.4331   29.8127    3.7194 C   0  0  0  0  0  0  0  0  0  0  0  0
   15.9451   29.4652    4.9676 C   0  0  0  0  0  0  0  0  0  0  0  0
   16.0853   28.1303    5.3340 C   0  0  0  0  0  0  0  0  0  0  0  0
   15.6848   27.1625    4.4027 C   0  0  2  0  0  0  0  0  0  0  0  0
   15.7140   25.8034    4.5111 N   0  3  0  0  0  0  0  0  0  0  0  0
   15.2242   25.2047    3.3741 C   0  0  1  0  0  0  0  0  0  0  0  0
   15.1779   23.7276    3.3555 C   0  0  0  0  0  0  0  0  0  0  0  0
   14.4211   24.1449   -0.5787 H   0  0  0  0  0  0  0  0  0  0  0  0
   17.0628   24.9568   -1.6517 H   0  0  0  0  0  0  0  0  0  0  0  0
   18.1682   23.7676   -5.0307 H   0  0  0  0  0  0  0  0  0  0  0  0
   20.6035   23.9653   -4.6189 H   0  0  0  0  0  0  0  0  0  0  0  0
   21.5048   25.9164   -3.3811 H   0  0  0  0  0  0  0  0  0  0  0  0
   19.9665   27.6742   -2.5492 H   0  0  0  0  0  0  0  0  0  0  0  0
   17.5310   27.4827   -2.9276 H   0  0  0  0  0  0  0  0  0  0  0  0
   14.5961   25.7477   -5.4129 H   0  0  0  0  0  0  0  0  0  0  0  0
   16.1047   25.3552   -6.2529 H   0  0  0  0  0  0  0  0  0  0  0  0
   15.8618   26.9776   -5.5322 H   0  0  0  0  0  0  0  0  0  0  0  0
   16.7685   22.6982   -2.9927 H   0  0  0  0  0  0  0  0  0  0  0  0
   15.3810   22.3962   -1.9774 H   0  0  0  0  0  0  0  0  0  0  0  0
   19.0676   22.7784   -2.0451 H   0  0  0  0  0  0  0  0  0  0  0  0
   20.5575   22.0954   -0.2046 H   0  0  0  0  0  0  0  0  0  0  0  0
   19.6070   21.3889    1.9737 H   0  0  0  0  0  0  0  0  0  0  0  0
   17.1491   21.3561    2.3037 H   0  0  0  0  0  0  0  0  0  0  0  0
   15.6457   22.0283    0.4672 H   0  0  0  0  0  0  0  0  0  0  0  0
   13.5500   25.2593    1.0953 H   0  0  0  0  0  0  0  0  0  0  0  0
   13.7017   26.9858    0.8598 H   0  0  0  0  0  0  0  0  0  0  0  0
   14.6614   29.1153    1.8265 H   0  0  0  0  0  0  0  0  0  0  0  0
   15.3363   30.8616    3.4504 H   0  0  0  0  0  0  0  0  0  0  0  0
   16.2409   30.2447    5.6678 H   0  0  0  0  0  0  0  0  0  0  0  0
   16.4898   27.8523    6.3017 H   0  0  0  0  0  0  0  0  0  0  0  0
   16.0442   25.3042    5.3234 H   0  0  0  0  0  0  0  0  0  0  0  0
   14.7827   23.3214    2.4264 H   0  0  0  0  0  0  0  0  0  0  0  0
   14.5647   23.3648    4.1866 H   0  0  0  0  0  0  0  0  0  0  0  0
   16.1933   23.3368    3.5104 H   0  0  0  0  0  0  0  0  0  0  0  0
  1  2  2  0  0  0  0
  2  3  1  0  0  0  0
  2 22  1  0  0  0  0
  3  4  1  0  0  0  0
  3 33  1  0  0  0  0
  4  5  1  0  0  0  0
  4 15  1  0  0  0  0
  4 34  1  1  0  0  0
  5  6  1  0  0  0  0
  5 14  2  0  0  0  0
  6  7  1  0  0  0  0
  6 13  1  0  0  0  0
  7  8  2  0  0  0  0
  7 12  1  0  0  0  0
  8  9  1  0  0  0  0
  8 35  1  0  0  0  0
  9 10  2  0  0  0  0
  9 36  1  0  0  0  0
 10 11  1  0  0  0  0
 10 37  1  0  0  0  0
 11 12  2  0  0  0  0
 11 38  1  0  0  0  0
 12 39  1  0  0  0  0
 13 40  1  0  0  0  0
 13 41  1  0  0  0  0
 13 42  1  0  0  0  0
 15 16  1  0  0  0  0
 15 43  1  0  0  0  0
 15 44  1  0  0  0  0
 16 17  2  0  0  0  0
 16 21  1  0  0  0  0
 17 18  1  0  0  0  0
 17 45  1  0  0  0  0
 18 19  2  0  0  0  0
 18 46  1  0  0  0  0
 19 20  1  0  0  0  0
 19 47  1  0  0  0  0
 20 21  2  0  0  0  0
 20 48  1  0  0  0  0
 21 49  1  0  0  0  0
 22 50  1  0  0  0  0
 22 51  1  0  0  0  0
 23 22  1  1  0  0  0
 23 24  1  0  0  0  0
 23 31  1  0  0  0  0
 24 25  1  1  0  0  0
 24 29  1  0  0  0  0
 25 26  1  0  0  0  0
 25 52  1  0  0  0  0
 26 27  1  0  0  0  0
 26 53  1  0  0  0  0
 27 28  1  0  0  0  0
 27 54  1  0  0  0  0
 28 55  1  0  0  0  0
 29 28  1  6  0  0  0
 29 30  1  0  0  0  0
 30 31  1  0  0  0  0
 30 56  1  0  0  0  0
 31 32  1  1  0  0  0
 32 57  1  0  0  0  0
 32 58  1  0  0  0  0
 32 59  1  0  0  0  0
M  CHG  1  30   1
M  END
$$$$
