1CG
 OpenBabel04111919233D

 51 54  0  0  1  0  0  0  0  0999 V2000
  -13.5634   36.5483   32.2878 C   0  0  0  0  0  0  0  0  0  0  0  0
  -12.3565   37.0988   31.8887 C   0  0  0  0  0  0  0  0  0  0  0  0
  -11.4417   36.2884   31.2022 C   0  0  0  0  0  0  0  0  0  0  0  0
  -12.5610   39.3047   35.3798 C   0  0  0  0  0  0  0  0  0  0  0  0
  -11.0934   42.1862   35.4324 C   0  0  0  0  0  0  0  0  0  0  0  0
   -9.6310   44.0802   35.8573 C   0  0  0  0  0  0  0  0  0  0  0  0
  -10.8342   41.7289   36.7254 C   0  0  0  0  0  0  0  0  0  0  0  0
   -8.1102   44.1608   39.2053 C   0  0  0  0  0  0  0  0  0  0  0  0
  -13.8410   38.5602   36.8833 C   0  0  0  0  0  0  0  0  0  0  0  0
   -6.0169   44.7030   40.2389 O   0  0  0  0  0  0  0  0  0  0  0  0
   -7.1140   45.1765   39.7948 C   0  0  0  0  0  0  0  0  0  0  0  0
   -7.4206   46.3915   39.6334 O   0  0  0  0  0  0  0  0  0  0  0  0
   -8.4218   43.2232   39.9355 O   0  0  0  0  0  0  0  0  0  0  0  0
   -8.5299   44.4019   37.9102 N   0  0  0  0  0  0  0  0  0  0  0  0
   -9.3753   43.6173   37.1366 C   0  0  0  0  0  0  0  0  0  0  0  0
  -10.4822   43.3873   35.0208 C   0  0  0  0  0  0  0  0  0  0  0  0
   -9.9703   42.4329   37.5790 C   0  0  0  0  0  0  0  0  0  0  0  0
  -12.0555   41.5500   34.4870 C   0  0  0  0  0  0  0  0  0  0  0  0
  -11.9239   40.0505   34.2744 C   0  0  2  0  0  0  0  0  0  0  0  0
  -12.9506   39.6061   32.8485 S   0  0  0  0  0  0  0  0  0  0  0  0
  -12.9821   40.7130   31.9016 O   0  0  0  0  0  0  0  0  0  0  0  0
  -14.2080   39.0581   33.2896 O   0  0  0  0  0  0  0  0  0  0  0  0
  -11.9684   38.4434   32.1361 N   0  0  0  0  0  0  0  0  0  0  0  0
  -13.8771   35.2130   32.0273 C   0  0  0  0  0  0  0  0  0  0  0  0
  -12.9720   34.4312   31.3476 C   0  0  0  0  0  0  0  0  0  0  0  0
  -13.2765   33.1573   31.0836 F   0  0  0  0  0  0  0  0  0  0  0  0
  -11.7536   34.9531   30.9379 C   0  0  0  0  0  0  0  0  0  0  0  0
  -11.8566   38.2615   35.9068 O   0  0  0  0  0  0  0  0  0  0  0  0
  -12.6843   37.8004   36.8857 C   0  0  0  0  0  0  0  0  0  0  0  0
  -12.4276   36.7685   37.7686 C   0  0  0  0  0  0  0  0  0  0  0  0
  -13.4221   36.5113   38.7094 C   0  0  0  0  0  0  0  0  0  0  0  0
  -14.6151   37.2414   38.7340 C   0  0  0  0  0  0  0  0  0  0  0  0
  -14.8499   38.2744   37.8116 C   0  0  0  0  0  0  0  0  0  0  0  0
  -13.7340   39.5341   35.9390 N   0  0  0  0  0  0  0  0  0  0  0  0
  -14.3265   37.0979   32.8145 H   0  0  0  0  0  0  0  0  0  0  0  0
  -10.4883   36.6861   30.8711 H   0  0  0  0  0  0  0  0  0  0  0  0
   -9.1771   45.0072   35.5021 H   0  0  0  0  0  0  0  0  0  0  0  0
  -11.3137   40.8395   37.1310 H   0  0  0  0  0  0  0  0  0  0  0  0
   -8.1334   45.2507   37.5147 H   0  0  0  0  0  0  0  0  0  0  0  0
  -10.6874   43.8073   34.0335 H   0  0  0  0  0  0  0  0  0  0  0  0
   -9.8000   42.0521   38.5656 H   0  0  0  0  0  0  0  0  0  0  0  0
  -11.9086   42.0433   33.5187 H   0  0  0  0  0  0  0  0  0  0  0  0
  -13.0706   41.7935   34.8072 H   0  0  0  0  0  0  0  0  0  0  0  0
  -10.8895   39.7523   34.0741 H   0  0  0  0  0  0  0  0  0  0  0  0
  -11.0900   38.7705   31.7267 H   0  0  0  0  0  0  0  0  0  0  0  0
  -14.8368   34.8291   32.3496 H   0  0  0  0  0  0  0  0  0  0  0  0
  -11.0527   34.3210   30.4025 H   0  0  0  0  0  0  0  0  0  0  0  0
  -11.4914   36.2309   37.7408 H   0  0  0  0  0  0  0  0  0  0  0  0
  -13.2594   35.7290   39.4451 H   0  0  0  0  0  0  0  0  0  0  0  0
  -15.3675   37.0187   39.4833 H   0  0  0  0  0  0  0  0  0  0  0  0
  -15.7720   38.8471   37.8295 H   0  0  0  0  0  0  0  0  0  0  0  0
  1  2  2  0  0  0  0
  1 24  1  0  0  0  0
  1 35  1  0  0  0  0
  2  3  1  0  0  0  0
  2 23  1  0  0  0  0
  3 27  2  0  0  0  0
  3 36  1  0  0  0  0
  4 19  1  0  0  0  0
  4 28  1  0  0  0  0
  4 34  2  0  0  0  0
  5  7  2  0  0  0  0
  5 16  1  0  0  0  0
  5 18  1  0  0  0  0
  6 15  1  0  0  0  0
  6 16  2  0  0  0  0
  6 37  1  0  0  0  0
  7 17  1  0  0  0  0
  7 38  1  0  0  0  0
  8 11  1  0  0  0  0
  8 13  2  0  0  0  0
  8 14  1  0  0  0  0
  9 29  2  0  0  0  0
  9 33  1  0  0  0  0
  9 34  1  0  0  0  0
 10 11  2  0  0  0  0
 11 12  1  0  0  0  0
 14 15  1  0  0  0  0
 14 39  1  0  0  0  0
 15 17  2  0  0  0  0
 16 40  1  0  0  0  0
 17 41  1  0  0  0  0
 18 19  1  0  0  0  0
 18 42  1  0  0  0  0
 18 43  1  0  0  0  0
 19 20  1  0  0  0  0
 19 44  1  6  0  0  0
 20 21  2  0  0  0  0
 20 22  2  0  0  0  0
 20 23  1  0  0  0  0
 23 45  1  0  0  0  0
 24 25  2  0  0  0  0
 24 46  1  0  0  0  0
 25 26  1  0  0  0  0
 25 27  1  0  0  0  0
 27 47  1  0  0  0  0
 28 29  1  0  0  0  0
 29 30  1  0  0  0  0
 30 31  2  0  0  0  0
 30 48  1  0  0  0  0
 31 32  1  0  0  0  0
 31 49  1  0  0  0  0
 32 33  2  0  0  0  0
 32 50  1  0  0  0  0
 33 51  1  0  0  0  0
M  END
$$$$
