1D6
 OpenBabel04111919253D

 55 59  0  0  1  0  0  0  0  0999 V2000
    9.3489   20.8148    3.5687 C   0  0  0  0  0  0  0  0  0  0  0  0
    7.9019   20.4499    3.6703 C   0  0  0  0  0  0  0  0  0  0  0  0
    6.9804   21.0131    2.7819 C   0  0  0  0  0  0  0  0  0  0  0  0
    7.4547   19.5523    4.6409 C   0  0  0  0  0  0  0  0  0  0  0  0
    6.1011   19.2263    4.7205 C   0  0  0  0  0  0  0  0  0  0  0  0
    5.1874   19.7981    3.8344 C   0  0  0  0  0  0  0  0  0  0  0  0
    5.6238   20.6761    2.8482 C   0  0  0  0  0  0  0  0  0  0  0  0
    4.6887   21.3141    1.8959 C   0  0  0  0  0  0  0  0  0  0  0  0
    4.9186   22.4577    1.5096 O   0  0  0  0  0  0  0  0  0  0  0  0
    3.5094   20.5823    1.3588 C   0  0  0  0  0  0  0  0  0  0  0  0
    3.2373   19.2788    1.2127 C   0  0  0  0  0  0  0  0  0  0  0  0
    3.9728   18.1862    1.5723 O   0  0  0  0  0  0  0  0  0  0  0  0
    1.9147   19.1433    0.5011 C   0  0  0  0  0  0  0  0  0  0  0  0
    1.4336   18.0921    0.1632 O   0  0  0  0  0  0  0  0  0  0  0  0
    1.4770   20.4423    0.2730 N   0  0  0  0  0  0  0  0  0  0  0  0
    0.3470   20.7767   -0.4897 C   0  0  0  0  0  0  0  0  0  0  0  0
    0.4105   21.7510   -1.4913 C   0  0  0  0  0  0  0  0  0  0  0  0
   -0.7276   22.0440   -2.2449 C   0  0  0  0  0  0  0  0  0  0  0  0
   -1.9316   21.3736   -1.9814 C   0  0  0  0  0  0  0  0  0  0  0  0
   -3.1784   21.6699   -2.7700 C   0  0  0  0  0  0  0  0  0  0  0  0
   -3.7704   20.4117   -3.4118 C   0  0  0  0  0  0  0  0  0  0  0  0
   -4.8632   20.0178   -2.9090 O   0  0  0  0  0  0  0  0  0  0  0  0
   -3.1201   19.9295   -4.3805 O   0  0  0  0  0  0  0  0  0  0  0  0
   -1.9933   20.4217   -0.9604 C   0  0  0  0  0  0  0  0  0  0  0  0
   -0.8562   20.1219   -0.2222 C   0  0  0  0  0  0  0  0  0  0  0  0
    2.4050   21.4239    0.7885 C   0  0  1  0  0  0  0  0  0  0  0  0
    1.7625   22.3457    1.8058 C   0  0  0  0  0  0  0  0  0  0  0  0
    1.1507   21.8105    2.9533 C   0  0  0  0  0  0  0  0  0  0  0  0
    0.5915   22.6743    3.8665 C   0  0  0  0  0  0  0  0  0  0  0  0
   -0.0361   22.3242    5.0220 O   0  0  0  0  0  0  0  0  0  0  0  0
   -0.3958   23.6183    5.5510 C   0  0  0  0  0  0  0  0  0  0  0  0
    0.0245   24.7026    4.6995 O   0  0  0  0  0  0  0  0  0  0  0  0
    0.6301   24.0325    3.6759 C   0  0  0  0  0  0  0  0  0  0  0  0
    1.2304   24.5907    2.5590 C   0  0  0  0  0  0  0  0  0  0  0  0
    1.2696   26.2951    2.3547 Cl  0  0  0  0  0  0  0  0  0  0  0  0
    1.8043   23.7442    1.6068 C   0  0  0  0  0  0  0  0  0  0  0  0
    9.5023   21.5259    2.7495 H   0  0  0  0  0  0  0  0  0  0  0  0
    9.9472   19.9216    3.3669 H   0  0  0  0  0  0  0  0  0  0  0  0
    9.6847   21.2813    4.4991 H   0  0  0  0  0  0  0  0  0  0  0  0
    7.3287   21.7203    2.0338 H   0  0  0  0  0  0  0  0  0  0  0  0
    8.1596   19.1091    5.3398 H   0  0  0  0  0  0  0  0  0  0  0  0
    5.7527   18.5254    5.4745 H   0  0  0  0  0  0  0  0  0  0  0  0
    4.1340   19.5540    3.9227 H   0  0  0  0  0  0  0  0  0  0  0  0
    4.8473   18.2430    1.1603 H   0  0  0  0  0  0  0  0  0  0  0  0
    1.3427   22.2517   -1.7315 H   0  0  0  0  0  0  0  0  0  0  0  0
   -0.6822   22.7758   -3.0490 H   0  0  0  0  0  0  0  0  0  0  0  0
   -2.9464   22.3945   -3.5581 H   0  0  0  0  0  0  0  0  0  0  0  0
   -3.9182   22.1190   -2.0936 H   0  0  0  0  0  0  0  0  0  0  0  0
   -2.9327   19.9009   -0.7745 H   0  0  0  0  0  0  0  0  0  0  0  0
   -0.9220   19.3901    0.5765 H   0  0  0  0  0  0  0  0  0  0  0  0
    2.7937   21.9931   -0.0458 H   0  0  0  0  0  0  0  0  0  0  0  0
    1.1270   20.7350    3.0955 H   0  0  0  0  0  0  0  0  0  0  0  0
    0.0752   23.7436    6.5364 H   0  0  0  0  0  0  0  0  0  0  0  0
   -1.4865   23.6676    5.6774 H   0  0  0  0  0  0  0  0  0  0  0  0
    2.2907   24.1502    0.7165 H   0  0  0  0  0  0  0  0  0  0  0  0
  1  2  1  0  0  0  0
  1 37  1  0  0  0  0
  1 38  1  0  0  0  0
  1 39  1  0  0  0  0
  2  3  2  0  0  0  0
  2  4  1  0  0  0  0
  3  7  1  0  0  0  0
  3 40  1  0  0  0  0
  4  5  2  0  0  0  0
  4 41  1  0  0  0  0
  5  6  1  0  0  0  0
  5 42  1  0  0  0  0
  6  7  2  0  0  0  0
  6 43  1  0  0  0  0
  7  8  1  0  0  0  0
  8  9  2  0  0  0  0
  8 10  1  0  0  0  0
 10 11  2  0  0  0  0
 10 26  1  0  0  0  0
 11 12  1  0  0  0  0
 11 13  1  0  0  0  0
 12 44  1  0  0  0  0
 13 14  2  0  0  0  0
 13 15  1  0  0  0  0
 15 16  1  0  0  0  0
 15 26  1  0  0  0  0
 16 17  2  0  0  0  0
 16 25  1  0  0  0  0
 17 18  1  0  0  0  0
 17 45  1  0  0  0  0
 18 19  2  0  0  0  0
 18 46  1  0  0  0  0
 19 20  1  0  0  0  0
 19 24  1  0  0  0  0
 20 21  1  0  0  0  0
 20 47  1  0  0  0  0
 20 48  1  0  0  0  0
 21 22  2  0  0  0  0
 21 23  1  0  0  0  0
 24 25  2  0  0  0  0
 24 49  1  0  0  0  0
 25 50  1  0  0  0  0
 26 27  1  0  0  0  0
 26 51  1  6  0  0  0
 27 28  2  0  0  0  0
 27 36  1  0  0  0  0
 28 29  1  0  0  0  0
 28 52  1  0  0  0  0
 29 30  1  0  0  0  0
 29 33  2  0  0  0  0
 30 31  1  0  0  0  0
 31 32  1  0  0  0  0
 31 53  1  0  0  0  0
 31 54  1  0  0  0  0
 32 33  1  0  0  0  0
 33 34  1  0  0  0  0
 34 35  1  0  0  0  0
 34 36  2  0  0  0  0
 36 55  1  0  0  0  0
M  END
$$$$
