1D8
 OpenBabel04111919253D

 52 56  0  0  1  0  0  0  0  0999 V2000
    9.3740   20.1426    5.1007 F   0  0  0  0  0  0  0  0  0  0  0  0
    8.8639   20.1334    3.8385 C   0  0  0  0  0  0  0  0  0  0  0  0
    9.5078   19.1331    3.1784 F   0  0  0  0  0  0  0  0  0  0  0  0
    9.2729   21.2942    3.2590 F   0  0  0  0  0  0  0  0  0  0  0  0
    7.3727   19.9507    3.8156 C   0  0  0  0  0  0  0  0  0  0  0  0
    6.5861   20.6107    2.8597 C   0  0  0  0  0  0  0  0  0  0  0  0
    6.7589   19.0810    4.7295 C   0  0  0  0  0  0  0  0  0  0  0  0
    5.3802   18.8954    4.7106 C   0  0  0  0  0  0  0  0  0  0  0  0
    4.6023   19.5601    3.7646 C   0  0  0  0  0  0  0  0  0  0  0  0
    5.2056   20.3970    2.8218 C   0  0  0  0  0  0  0  0  0  0  0  0
    4.4144   21.1132    1.8016 C   0  0  0  0  0  0  0  0  0  0  0  0
    4.7411   22.2528    1.4817 O   0  0  0  0  0  0  0  0  0  0  0  0
    3.2492   20.4648    1.1662 C   0  0  0  0  0  0  0  0  0  0  0  0
    2.9554   19.1744    0.9970 C   0  0  0  0  0  0  0  0  0  0  0  0
    3.6628   18.0605    1.3645 O   0  0  0  0  0  0  0  0  0  0  0  0
    1.6738   19.0938    0.2557 C   0  0  0  0  0  0  0  0  0  0  0  0
    1.2001   18.0477   -0.1387 O   0  0  0  0  0  0  0  0  0  0  0  0
    1.2876   20.4030    0.0241 N   0  0  0  0  0  0  0  0  0  0  0  0
    0.1807   20.7565   -0.7664 C   0  0  0  0  0  0  0  0  0  0  0  0
   -1.0357   20.1050   -0.5685 C   0  0  0  0  0  0  0  0  0  0  0  0
   -2.1557   20.4218   -1.3482 C   0  0  0  0  0  0  0  0  0  0  0  0
   -3.4774   19.7314   -1.1000 C   0  0  0  0  0  0  0  0  0  0  0  0
   -3.5255   18.8871   -0.1512 O   0  0  0  0  0  0  0  0  0  0  0  0
   -4.4487   20.0592   -1.8541 O   0  0  0  0  0  0  0  0  0  0  0  0
   -2.0139   21.3905   -2.3553 C   0  0  0  0  0  0  0  0  0  0  0  0
   -0.7954   22.0412   -2.5614 C   0  0  0  0  0  0  0  0  0  0  0  0
    0.2956   21.7414   -1.7525 C   0  0  0  0  0  0  0  0  0  0  0  0
    2.1968   21.3637    0.5872 C   0  0  1  0  0  0  0  0  0  0  0  0
    1.5403   22.2290    1.6544 C   0  0  0  0  0  0  0  0  0  0  0  0
    0.8653   21.6527    2.7530 C   0  0  0  0  0  0  0  0  0  0  0  0
    0.3291   22.4855    3.7137 C   0  0  0  0  0  0  0  0  0  0  0  0
   -0.3180   22.0877    4.8444 O   0  0  0  0  0  0  0  0  0  0  0  0
   -0.4667   23.3507    5.5222 C   0  0  0  0  0  0  0  0  0  0  0  0
   -0.1603   24.4782    4.6796 O   0  0  0  0  0  0  0  0  0  0  0  0
    0.4240   23.8532    3.6173 C   0  0  0  0  0  0  0  0  0  0  0  0
    1.0669   24.4496    2.5483 C   0  0  0  0  0  0  0  0  0  0  0  0
    1.2032   26.1569    2.4242 Cl  0  0  0  0  0  0  0  0  0  0  0  0
    1.6385   23.6353    1.5657 C   0  0  0  0  0  0  0  0  0  0  0  0
    7.0529   21.2901    2.1459 H   0  0  0  0  0  0  0  0  0  0  0  0
    7.3616   18.5502    5.4654 H   0  0  0  0  0  0  0  0  0  0  0  0
    4.9071   18.2308    5.4296 H   0  0  0  0  0  0  0  0  0  0  0  0
    3.5263   19.4061    3.7704 H   0  0  0  0  0  0  0  0  0  0  0  0
    4.5069   18.0881    0.8891 H   0  0  0  0  0  0  0  0  0  0  0  0
   -1.1469   19.3636    0.2220 H   0  0  0  0  0  0  0  0  0  0  0  0
   -2.8716   21.6290   -2.9802 H   0  0  0  0  0  0  0  0  0  0  0  0
   -0.7026   22.7693   -3.3598 H   0  0  0  0  0  0  0  0  0  0  0  0
    1.2424   22.2290   -1.9525 H   0  0  0  0  0  0  0  0  0  0  0  0
    2.6294   21.9671   -0.2187 H   0  0  0  0  0  0  0  0  0  0  0  0
    0.7659   20.5757    2.8484 H   0  0  0  0  0  0  0  0  0  0  0  0
    0.2239   23.3649    6.3753 H   0  0  0  0  0  0  0  0  0  0  0  0
   -1.4867   23.4503    5.9120 H   0  0  0  0  0  0  0  0  0  0  0  0
    2.1704   24.0895    0.7311 H   0  0  0  0  0  0  0  0  0  0  0  0
  1  2  1  0  0  0  0
  2  3  1  0  0  0  0
  2  4  1  0  0  0  0
  2  5  1  0  0  0  0
  5  6  2  0  0  0  0
  5  7  1  0  0  0  0
  6 10  1  0  0  0  0
  6 39  1  0  0  0  0
  7  8  2  0  0  0  0
  7 40  1  0  0  0  0
  8  9  1  0  0  0  0
  8 41  1  0  0  0  0
  9 10  2  0  0  0  0
  9 42  1  0  0  0  0
 10 11  1  0  0  0  0
 11 12  2  0  0  0  0
 11 13  1  0  0  0  0
 13 14  2  0  0  0  0
 13 28  1  0  0  0  0
 14 15  1  0  0  0  0
 14 16  1  0  0  0  0
 15 43  1  0  0  0  0
 16 17  2  0  0  0  0
 16 18  1  0  0  0  0
 18 19  1  0  0  0  0
 18 28  1  0  0  0  0
 19 20  2  0  0  0  0
 19 27  1  0  0  0  0
 20 21  1  0  0  0  0
 20 44  1  0  0  0  0
 21 22  1  0  0  0  0
 21 25  2  0  0  0  0
 22 23  2  0  0  0  0
 22 24  1  0  0  0  0
 25 26  1  0  0  0  0
 25 45  1  0  0  0  0
 26 27  2  0  0  0  0
 26 46  1  0  0  0  0
 27 47  1  0  0  0  0
 28 29  1  0  0  0  0
 28 48  1  6  0  0  0
 29 30  2  0  0  0  0
 29 38  1  0  0  0  0
 30 31  1  0  0  0  0
 30 49  1  0  0  0  0
 31 32  1  0  0  0  0
 31 35  2  0  0  0  0
 32 33  1  0  0  0  0
 33 34  1  0  0  0  0
 33 50  1  0  0  0  0
 33 51  1  0  0  0  0
 34 35  1  0  0  0  0
 35 36  1  0  0  0  0
 36 37  1  0  0  0  0
 36 38  2  0  0  0  0
 38 52  1  0  0  0  0
M  END
$$$$
