1D9
 OpenBabel04111919253D

 52 55  0  0  1  0  0  0  0  0999 V2000
   -0.3399   21.4623    5.0079 F   0  0  0  0  0  0  0  0  0  0  0  0
   -0.3298   22.8176    4.8551 C   0  0  0  0  0  0  0  0  0  0  0  0
    0.2075   23.3231    5.9990 F   0  0  0  0  0  0  0  0  0  0  0  0
   -1.6251   23.2223    4.8097 F   0  0  0  0  0  0  0  0  0  0  0  0
    0.4085   23.2391    3.6391 C   0  0  0  0  0  0  0  0  0  0  0  0
    0.8486   22.2600    2.7620 C   0  0  0  0  0  0  0  0  0  0  0  0
    0.6127   24.5976    3.3597 C   0  0  0  0  0  0  0  0  0  0  0  0
    1.2769   24.9618    2.2070 C   0  0  0  0  0  0  0  0  0  0  0  0
    1.7204   23.9875    1.3320 C   0  0  0  0  0  0  0  0  0  0  0  0
    1.4902   22.6243    1.5965 C   0  0  0  0  0  0  0  0  0  0  0  0
    2.0341   21.6305    0.6117 C   0  0  2  0  0  0  0  0  0  0  0  0
    1.1323   20.7419   -0.0283 N   0  0  0  0  0  0  0  0  0  0  0  0
    0.1886   21.1104   -0.9944 C   0  0  0  0  0  0  0  0  0  0  0  0
   -1.0476   20.4897   -0.9437 C   0  0  0  0  0  0  0  0  0  0  0  0
   -2.0597   20.7860   -1.8688 C   0  0  0  0  0  0  0  0  0  0  0  0
   -3.4075   20.0986   -1.7696 C   0  0  0  0  0  0  0  0  0  0  0  0
   -4.2831   20.4049   -2.6414 O   0  0  0  0  0  0  0  0  0  0  0  0
   -3.5657   19.2748   -0.8141 O   0  0  0  0  0  0  0  0  0  0  0  0
   -1.7857   21.7196   -2.8774 C   0  0  0  0  0  0  0  0  0  0  0  0
   -0.5357   22.3362   -2.9464 C   0  0  0  0  0  0  0  0  0  0  0  0
    0.4499   22.0393   -2.0030 C   0  0  0  0  0  0  0  0  0  0  0  0
    1.6400   19.4281   -0.0522 C   0  0  0  0  0  0  0  0  0  0  0  0
    1.2276   18.4495   -0.6349 O   0  0  0  0  0  0  0  0  0  0  0  0
    2.9216   19.5067    0.7342 C   0  0  0  0  0  0  0  0  0  0  0  0
    3.7317   18.3985    0.8775 O   0  0  0  0  0  0  0  0  0  0  0  0
    3.1602   20.7473    1.0186 C   0  0  0  0  0  0  0  0  0  0  0  0
    4.3516   21.4297    1.5651 C   0  0  0  0  0  0  0  0  0  0  0  0
    4.4754   22.6605    1.4904 O   0  0  0  0  0  0  0  0  0  0  0  0
    5.1765   20.7373    2.5269 C   0  0  0  0  0  0  0  0  0  0  0  0
    6.5453   20.8977    2.6040 C   0  0  0  0  0  0  0  0  0  0  0  0
    7.2338   20.3529    3.6956 C   0  0  0  0  0  0  0  0  0  0  0  0
    8.7085   20.5206    3.7486 C   0  0  0  0  0  0  0  0  0  0  0  0
    9.0859   21.7373    3.2697 F   0  0  0  0  0  0  0  0  0  0  0  0
    9.2085   20.4161    5.0079 F   0  0  0  0  0  0  0  0  0  0  0  0
    9.3362   19.5834    2.9897 F   0  0  0  0  0  0  0  0  0  0  0  0
    6.5534   19.6501    4.6945 C   0  0  0  0  0  0  0  0  0  0  0  0
    5.1840   19.5096    4.6126 C   0  0  0  0  0  0  0  0  0  0  0  0
    4.4918   20.0599    3.5389 C   0  0  0  0  0  0  0  0  0  0  0  0
    0.6863   21.2085    2.9834 H   0  0  0  0  0  0  0  0  0  0  0  0
    0.2456   25.3455    4.0498 H   0  0  0  0  0  0  0  0  0  0  0  0
    1.4465   26.0099    1.9852 H   0  0  0  0  0  0  0  0  0  0  0  0
    2.2686   24.2758    0.4325 H   0  0  0  0  0  0  0  0  0  0  0  0
    2.4884   22.2157   -0.1649 H   0  0  0  0  0  0  0  0  0  0  0  0
   -1.2580   19.7638   -0.1589 H   0  0  0  0  0  0  0  0  0  0  0  0
   -2.5601   21.9559   -3.6052 H   0  0  0  0  0  0  0  0  0  0  0  0
   -0.3436   23.0543   -3.7378 H   0  0  0  0  0  0  0  0  0  0  0  0
    1.4190   22.5075   -2.0932 H   0  0  0  0  0  0  0  0  0  0  0  0
    4.4715   18.6642    1.4342 H   0  0  0  0  0  0  0  0  0  0  0  0
    7.0874   21.4452    1.8441 H   0  0  0  0  0  0  0  0  0  0  0  0
    7.1095   19.2324    5.5305 H   0  0  0  0  0  0  0  0  0  0  0  0
    4.6519   18.9717    5.3919 H   0  0  0  0  0  0  0  0  0  0  0  0
    3.4074   19.9470    3.5013 H   0  0  0  0  0  0  0  0  0  0  0  0
  1  2  1  0  0  0  0
  2  3  1  0  0  0  0
  2  4  1  0  0  0  0
  2  5  1  0  0  0  0
  5  6  2  0  0  0  0
  5  7  1  0  0  0  0
  6 10  1  0  0  0  0
  6 39  1  0  0  0  0
  7  8  2  0  0  0  0
  7 40  1  0  0  0  0
  8  9  1  0  0  0  0
  8 41  1  0  0  0  0
  9 10  2  0  0  0  0
  9 42  1  0  0  0  0
 10 11  1  0  0  0  0
 11 12  1  0  0  0  0
 11 26  1  0  0  0  0
 11 43  1  6  0  0  0
 12 13  1  0  0  0  0
 12 22  1  0  0  0  0
 13 14  2  0  0  0  0
 13 21  1  0  0  0  0
 14 15  1  0  0  0  0
 14 44  1  0  0  0  0
 15 16  1  0  0  0  0
 15 19  2  0  0  0  0
 16 17  2  0  0  0  0
 16 18  1  0  0  0  0
 19 20  1  0  0  0  0
 19 45  1  0  0  0  0
 20 21  2  0  0  0  0
 20 46  1  0  0  0  0
 21 47  1  0  0  0  0
 22 23  2  0  0  0  0
 22 24  1  0  0  0  0
 24 25  1  0  0  0  0
 24 26  2  0  0  0  0
 25 48  1  0  0  0  0
 26 27  1  0  0  0  0
 27 28  2  0  0  0  0
 27 29  1  0  0  0  0
 29 30  2  0  0  0  0
 29 38  1  0  0  0  0
 30 31  1  0  0  0  0
 30 49  1  0  0  0  0
 31 32  1  0  0  0  0
 31 36  2  0  0  0  0
 32 33  1  0  0  0  0
 32 34  1  0  0  0  0
 32 35  1  0  0  0  0
 36 37  1  0  0  0  0
 36 50  1  0  0  0  0
 37 38  2  0  0  0  0
 37 51  1  0  0  0  0
 38 52  1  0  0  0  0
M  END
$$$$
