1DK
 OpenBabel04111919243D

 55 58  0  0  1  0  0  0  0  0999 V2000
    2.5843   24.2471    0.9672 C   0  0  0  0  0  0  0  0  0  0  0  0
    1.8826   23.5448    2.0994 C   0  0  0  0  0  0  0  0  0  0  0  0
    1.2375   24.3134    3.0798 C   0  0  0  0  0  0  0  0  0  0  0  0
    0.5615   23.7181    4.1569 C   0  0  0  0  0  0  0  0  0  0  0  0
   -0.1211   24.5884    5.1746 C   0  0  0  0  0  0  0  0  0  0  0  0
    0.5241   22.3205    4.2585 C   0  0  0  0  0  0  0  0  0  0  0  0
   -0.1973   21.6437    5.3922 C   0  0  0  0  0  0  0  0  0  0  0  0
    1.1648   21.5483    3.2785 C   0  0  0  0  0  0  0  0  0  0  0  0
    1.8512   22.1414    2.1938 C   0  0  0  0  0  0  0  0  0  0  0  0
    2.5505   21.2670    1.1554 C   0  0  1  0  0  0  0  0  0  0  0  0
    3.6257   20.3913    1.7600 C   0  0  0  0  0  0  0  0  0  0  0  0
    4.8378   21.0336    2.3204 C   0  0  0  0  0  0  0  0  0  0  0  0
    5.0796   22.1724    1.9211 O   0  0  0  0  0  0  0  0  0  0  0  0
    5.7258   20.3427    3.2593 C   0  0  0  0  0  0  0  0  0  0  0  0
    5.5046   19.3185    4.1646 C   0  0  0  0  0  0  0  0  0  0  0  0
    6.7047   18.8978    4.8213 C   0  0  0  0  0  0  0  0  0  0  0  0
    7.7924   19.6510    4.4470 C   0  0  0  0  0  0  0  0  0  0  0  0
    7.3675   20.8676    3.3322 S   0  0  0  0  0  0  0  0  0  0  0  0
    3.3605   19.0992    1.5669 C   0  0  0  0  0  0  0  0  0  0  0  0
    4.1312   18.0106    1.8367 O   0  0  0  0  0  0  0  0  0  0  0  0
    2.0795   18.9985    0.8239 C   0  0  0  0  0  0  0  0  0  0  0  0
    1.6271   17.9120    0.4879 O   0  0  0  0  0  0  0  0  0  0  0  0
    1.6494   20.2855    0.5804 N   0  0  0  0  0  0  0  0  0  0  0  0
    0.5228   20.6273   -0.2016 C   0  0  0  0  0  0  0  0  0  0  0  0
    0.6434   21.4976   -1.2868 C   0  0  0  0  0  0  0  0  0  0  0  0
   -0.4753   21.8127   -2.0721 C   0  0  0  0  0  0  0  0  0  0  0  0
   -0.7317   20.1009    0.1110 C   0  0  0  0  0  0  0  0  0  0  0  0
   -1.8577   20.4571   -0.6411 C   0  0  0  0  0  0  0  0  0  0  0  0
   -1.7360   21.3020   -1.7513 C   0  0  0  0  0  0  0  0  0  0  0  0
   -2.9474   21.6334   -2.5912 C   0  0  0  0  0  0  0  0  0  0  0  0
   -3.4768   20.4230   -3.3648 C   0  0  0  0  0  0  0  0  0  0  0  0
   -4.5946   19.9810   -2.9652 O   0  0  0  0  0  0  0  0  0  0  0  0
   -2.7699   20.0415   -4.3418 O   0  0  0  0  0  0  0  0  0  0  0  0
    2.5001   25.3344    1.0483 H   0  0  0  0  0  0  0  0  0  0  0  0
    2.1437   23.9541    0.0094 H   0  0  0  0  0  0  0  0  0  0  0  0
    3.6485   24.0032    0.9676 H   0  0  0  0  0  0  0  0  0  0  0  0
    1.2589   25.3982    3.0010 H   0  0  0  0  0  0  0  0  0  0  0  0
   -0.0008   25.6517    4.9447 H   0  0  0  0  0  0  0  0  0  0  0  0
    0.3067   24.4131    6.1674 H   0  0  0  0  0  0  0  0  0  0  0  0
   -1.1940   24.3733    5.1956 H   0  0  0  0  0  0  0  0  0  0  0  0
   -0.1267   20.5524    5.3285 H   0  0  0  0  0  0  0  0  0  0  0  0
   -1.2591   21.9084    5.3767 H   0  0  0  0  0  0  0  0  0  0  0  0
    0.2388   21.9463    6.3503 H   0  0  0  0  0  0  0  0  0  0  0  0
    1.1133   20.4640    3.3542 H   0  0  0  0  0  0  0  0  0  0  0  0
    2.9860   21.8395    0.3314 H   0  0  0  0  0  0  0  0  0  0  0  0
    4.5421   18.8562    4.3331 H   0  0  0  0  0  0  0  0  0  0  0  0
    6.7653   18.0794    5.5315 H   0  0  0  0  0  0  0  0  0  0  0  0
    8.8168   19.5538    4.7778 H   0  0  0  0  0  0  0  0  0  0  0  0
    1.6099   21.8853   -1.5953 H   0  0  0  0  0  0  0  0  0  0  0  0
   -0.3572   22.4344   -2.9566 H   0  0  0  0  0  0  0  0  0  0  0  0
   -0.8629   19.4386    0.9634 H   0  0  0  0  0  0  0  0  0  0  0  0
   -2.8353   20.0549   -0.3804 H   0  0  0  0  0  0  0  0  0  0  0  0
   -2.7159   22.4271   -3.3129 H   0  0  0  0  0  0  0  0  0  0  0  0
   -3.7328   22.0388   -1.9402 H   0  0  0  0  0  0  0  0  0  0  0  0
    3.6607   17.2600    1.4136 H   0  0  0  0  0  0  0  0  0  0  0  0
  1  2  1  0  0  0  0
  1 34  1  0  0  0  0
  1 35  1  0  0  0  0
  1 36  1  0  0  0  0
  2  3  2  0  0  0  0
  2  9  1  0  0  0  0
  3  4  1  0  0  0  0
  3 37  1  0  0  0  0
  4  5  1  0  0  0  0
  4  6  2  0  0  0  0
  5 38  1  0  0  0  0
  5 39  1  0  0  0  0
  5 40  1  0  0  0  0
  6  7  1  0  0  0  0
  6  8  1  0  0  0  0
  7 41  1  0  0  0  0
  7 42  1  0  0  0  0
  7 43  1  0  0  0  0
  8  9  2  0  0  0  0
  8 44  1  0  0  0  0
  9 10  1  0  0  0  0
 10 11  1  0  0  0  0
 10 23  1  0  0  0  0
 10 45  1  6  0  0  0
 11 12  1  0  0  0  0
 11 19  2  0  0  0  0
 12 13  2  0  0  0  0
 12 14  1  0  0  0  0
 14 15  2  0  0  0  0
 14 18  1  0  0  0  0
 15 16  1  0  0  0  0
 15 46  1  0  0  0  0
 16 17  2  0  0  0  0
 16 47  1  0  0  0  0
 17 18  1  0  0  0  0
 17 48  1  0  0  0  0
 19 20  1  0  0  0  0
 19 21  1  0  0  0  0
 20 55  1  0  0  0  0
 21 22  2  0  0  0  0
 21 23  1  0  0  0  0
 23 24  1  0  0  0  0
 24 25  2  0  0  0  0
 24 27  1  0  0  0  0
 25 26  1  0  0  0  0
 25 49  1  0  0  0  0
 26 29  2  0  0  0  0
 26 50  1  0  0  0  0
 27 28  2  0  0  0  0
 27 51  1  0  0  0  0
 28 29  1  0  0  0  0
 28 52  1  0  0  0  0
 29 30  1  0  0  0  0
 30 31  1  0  0  0  0
 30 53  1  0  0  0  0
 30 54  1  0  0  0  0
 31 32  2  0  0  0  0
 31 33  1  0  0  0  0
M  END
$$$$
