1E0
 OpenBabel04111920163D

 45 47  0  0  0  0  0  0  0  0999 V2000
   -4.8230    8.2652   13.1852 N   0  3  0  0  0  0  0  0  0  0  0  0
   -5.9225    7.6252   13.6680 N   0  0  0  0  0  0  0  0  0  0  0  0
   -5.4272    6.7099   14.5249 C   0  0  0  0  0  0  0  0  0  0  0  0
   -4.0087    6.7853   14.6020 C   0  0  0  0  0  0  0  0  0  0  0  0
   -3.6573    7.7683   13.7126 C   0  0  0  0  0  0  0  0  0  0  0  0
   -3.1874    6.0200   15.4197 N   0  0  0  0  0  0  0  0  0  0  0  0
   -1.8304    6.1387   15.5106 C   0  0  0  0  0  0  0  0  0  0  0  0
   -1.2717    5.2572   16.3806 N   0  0  0  0  0  0  0  0  0  0  0  0
   -1.1146    6.9233   14.9059 O   0  0  0  0  0  0  0  0  0  0  0  0
   -6.2790    5.7874   15.2822 C   0  0  0  0  0  0  0  0  0  0  0  0
   -7.6107    5.8131   14.9841 N   0  0  0  0  0  0  0  0  0  0  0  0
   -5.8359    5.0159   16.1337 O   0  0  0  0  0  0  0  0  0  0  0  0
   -4.9362    9.3482   12.2782 C   0  0  0  0  0  0  0  0  0  0  0  0
   -4.2644    9.2609   11.0504 C   0  0  0  0  0  0  0  0  0  0  0  0
   -4.3717   10.3033   10.1321 C   0  0  0  0  0  0  0  0  0  0  0  0
   -5.1063   11.4452   10.4491 C   0  0  0  0  0  0  0  0  0  0  0  0
   -5.6919   10.4999   12.6199 C   0  0  0  0  0  0  0  0  0  0  0  0
   -5.7545   11.5614   11.6844 C   0  0  0  0  0  0  0  0  0  0  0  0
   -6.4550   12.7372   12.0015 C   0  0  0  0  0  0  0  0  0  0  0  0
   -7.0902   12.8707   13.2319 C   0  0  0  0  0  0  0  0  0  0  0  0
   -7.0405   11.8407   14.1615 C   0  0  0  0  0  0  0  0  0  0  0  0
   -6.3413   10.6761   13.8612 C   0  0  0  0  0  0  0  0  0  0  0  0
   -7.7030   12.0880   15.3240 O   0  0  0  0  0  0  0  0  0  0  0  0
   -7.7120   11.0564   16.3092 C   0  0  0  0  0  0  0  0  0  0  0  0
   -8.3935   11.6352   17.5403 C   0  0  0  0  0  0  0  0  0  0  0  0
   -7.5628   12.7648   18.1354 C   0  0  0  0  0  0  0  0  0  0  0  0
   -2.6989    8.2059   13.4644 H   0  0  0  0  0  0  0  0  0  0  0  0
   -3.6574    5.3402   16.0093 H   0  0  0  0  0  0  0  0  0  0  0  0
   -0.2677    5.2974   16.4858 H   0  0  0  0  0  0  0  0  0  0  0  0
   -1.7941    4.5808   16.9123 H   0  0  0  0  0  0  0  0  0  0  0  0
   -8.2299    5.1691   15.4493 H   0  0  0  0  0  0  0  0  0  0  0  0
   -7.9505    6.4172   14.2408 H   0  0  0  0  0  0  0  0  0  0  0  0
   -3.7056    8.3679   10.7788 H   0  0  0  0  0  0  0  0  0  0  0  0
   -3.8885   10.2278    9.1598 H   0  0  0  0  0  0  0  0  0  0  0  0
   -5.1658   12.2520    9.7178 H   0  0  0  0  0  0  0  0  0  0  0  0
   -6.5032   13.5651   11.2982 H   0  0  0  0  0  0  0  0  0  0  0  0
   -7.6237   13.7866   13.4718 H   0  0  0  0  0  0  0  0  0  0  0  0
   -6.2804    9.8884   14.6023 H   0  0  0  0  0  0  0  0  0  0  0  0
   -6.6920   10.7472   16.5721 H   0  0  0  0  0  0  0  0  0  0  0  0
   -8.2783   10.1922   15.9405 H   0  0  0  0  0  0  0  0  0  0  0  0
   -8.5451   10.8510   18.2886 H   0  0  0  0  0  0  0  0  0  0  0  0
   -9.3754   12.0334   17.2582 H   0  0  0  0  0  0  0  0  0  0  0  0
   -8.0658   13.1892   19.0077 H   0  0  0  0  0  0  0  0  0  0  0  0
   -7.4070   13.5707   17.4098 H   0  0  0  0  0  0  0  0  0  0  0  0
   -6.5795   12.3976   18.4473 H   0  0  0  0  0  0  0  0  0  0  0  0
  1  2  1  0  0  0  0
  1  5  2  0  0  0  0
  1 13  1  0  0  0  0
  2  3  1  0  0  0  0
  3  4  2  0  0  0  0
  3 10  1  0  0  0  0
  4  5  1  0  0  0  0
  4  6  1  0  0  0  0
  5 27  1  0  0  0  0
  6  7  1  0  0  0  0
  6 28  1  0  0  0  0
  7  8  1  0  0  0  0
  7  9  2  0  0  0  0
  8 29  1  0  0  0  0
  8 30  1  0  0  0  0
 10 11  1  0  0  0  0
 10 12  2  0  0  0  0
 11 31  1  0  0  0  0
 11 32  1  0  0  0  0
 13 14  2  0  0  0  0
 13 17  1  0  0  0  0
 14 15  1  0  0  0  0
 14 33  1  0  0  0  0
 15 16  2  0  0  0  0
 15 34  1  0  0  0  0
 16 18  1  0  0  0  0
 16 35  1  0  0  0  0
 17 18  2  0  0  0  0
 17 22  1  0  0  0  0
 18 19  1  0  0  0  0
 19 20  2  0  0  0  0
 19 36  1  0  0  0  0
 20 21  1  0  0  0  0
 20 37  1  0  0  0  0
 21 22  2  0  0  0  0
 21 23  1  0  0  0  0
 22 38  1  0  0  0  0
 23 24  1  0  0  0  0
 24 25  1  0  0  0  0
 24 39  1  0  0  0  0
 24 40  1  0  0  0  0
 25 26  1  0  0  0  0
 25 41  1  0  0  0  0
 25 42  1  0  0  0  0
 26 43  1  0  0  0  0
 26 44  1  0  0  0  0
 26 45  1  0  0  0  0
M  CHG  1   1   1
M  END
$$$$
