1E9
 OpenBabel04111919263D

105111  0  0  1  0  0  0  0  0999 V2000
   18.5031   28.9035   14.8575 C   0  0  0  0  0  0  0  0  0  0  0  0
   18.1106   28.2634   13.5280 C   0  0  2  0  0  0  0  0  0  0  0  0
   19.8294   28.4029   15.4146 C   0  0  0  0  0  0  0  0  0  0  0  0
   16.9349   29.0374   12.8720 C   0  0  0  0  0  0  0  0  0  0  0  0
   15.3187   29.0365   13.7545 S   0  0  0  0  0  0  0  0  0  0  0  0
   14.6160   27.4542   13.3029 C   0  0  0  0  0  0  0  0  0  0  0  0
   20.0745   29.0231   16.7782 N   0  3  0  0  0  0  0  0  0  0  0  0
   21.3863   28.5523   17.3398 C   0  0  0  0  0  0  0  0  0  0  0  0
   20.0458   30.5234   16.7502 C   0  0  0  0  0  0  0  0  0  0  0  0
   14.5134   26.4429   14.2665 C   0  0  0  0  0  0  0  0  0  0  0  0
   13.9332   25.2090   13.9492 C   0  0  0  0  0  0  0  0  0  0  0  0
   13.4244   24.9884   12.6718 C   0  0  0  0  0  0  0  0  0  0  0  0
   13.4936   26.0024   11.7203 C   0  0  0  0  0  0  0  0  0  0  0  0
   14.0814   27.2311   12.0317 C   0  0  0  0  0  0  0  0  0  0  0  0
   17.8358   26.8498   13.7276 N   0  0  0  0  0  0  0  0  0  0  0  0
   17.7926   25.4349   10.2864 C   0  0  0  0  0  0  0  0  0  0  0  0
   17.3994   24.1147   10.5270 C   0  0  0  0  0  0  0  0  0  0  0  0
   17.1826   23.6820   11.8422 C   0  0  0  0  0  0  0  0  0  0  0  0
   17.3042   24.5778   12.9171 C   0  0  0  0  0  0  0  0  0  0  0  0
   17.6692   25.9321   12.6977 C   0  0  0  0  0  0  0  0  0  0  0  0
   17.9149   26.3114   11.3574 C   0  0  0  0  0  0  0  0  0  0  0  0
   17.2651   22.9595    9.1692 S   0  0  0  0  0  0  0  0  0  0  0  0
   17.5436   21.6340    9.7256 O   0  0  0  0  0  0  0  0  0  0  0  0
   17.9695   23.4734    8.0457 O   0  0  0  0  0  0  0  0  0  0  0  0
    2.9678   21.1188    8.6000 C   0  0  0  0  0  0  0  0  0  0  0  0
    3.0630   21.8833    9.7627 C   0  0  0  0  0  0  0  0  0  0  0  0
    3.6873   23.1399    9.7729 C   0  0  0  0  0  0  0  0  0  0  0  0
    4.2103   23.6319    8.5469 C   0  0  0  0  0  0  0  0  0  0  0  0
    4.1407   22.8333    7.3793 C   0  0  0  0  0  0  0  0  0  0  0  0
    3.5174   21.5880    7.4112 C   0  0  0  0  0  0  0  0  0  0  0  0
    3.7545   23.8522   11.0694 C   0  0  0  0  0  0  0  0  0  0  0  0
    3.1543   25.1108   11.2450 C   0  0  0  0  0  0  0  0  0  0  0  0
    3.1508   25.7437   12.4947 C   0  0  0  0  0  0  0  0  0  0  0  0
    3.7398   25.1179   13.5924 C   0  0  0  0  0  0  0  0  0  0  0  0
    4.3457   23.8714   13.4467 C   0  0  0  0  0  0  0  0  0  0  0  0
    4.3501   23.2445   12.1938 C   0  0  0  0  0  0  0  0  0  0  0  0
    4.9673   24.9353    8.4700 C   0  0  0  0  0  0  0  0  0  0  0  0
    6.4218   24.7161    8.2070 N   0  3  2  0  0  0  0  0  0  0  0  0
    7.0337   23.7213    9.1668 C   0  0  0  0  0  0  0  0  0  0  0  0
    8.4325   23.3583    8.6741 C   0  0  0  0  0  0  0  0  0  0  0  0
    9.2754   24.5640    8.5063 N   0  0  0  0  0  0  0  0  0  0  0  0
    8.6518   25.6478    7.7236 C   0  0  0  0  0  0  0  0  0  0  0  0
    7.2516   25.9789    8.2696 C   0  0  0  0  0  0  0  0  0  0  0  0
   10.6645   24.4081    8.4589 C   0  0  0  0  0  0  0  0  0  0  0  0
   11.5338   25.4699    8.1301 C   0  0  0  0  0  0  0  0  0  0  0  0
   12.6310   22.9502    8.8462 C   0  0  0  0  0  0  0  0  0  0  0  0
   11.2532   23.1651    8.8150 C   0  0  0  0  0  0  0  0  0  0  0  0
   13.4307   24.0186    8.4934 C   0  0  0  0  0  0  0  0  0  0  0  0
   12.9017   25.2458    8.1508 C   0  0  0  0  0  0  0  0  0  0  0  0
   14.2370   26.3298    7.8002 S   0  0  0  0  0  0  0  0  0  0  0  0
   15.4116   25.2435    8.1654 N   0  0  0  0  0  0  0  0  0  0  0  0
   14.8996   24.1182    8.4745 C   0  0  0  0  0  0  0  0  0  0  0  0
   15.6044   22.9738    8.8358 N   0  0  0  0  0  0  0  0  0  0  0  0
   14.2195   26.5920    6.3806 O   0  0  0  0  0  0  0  0  0  0  0  0
   14.2346   27.3928    8.7864 O   0  0  0  0  0  0  0  0  0  0  0  0
    3.7283   25.8914   15.1294 Cl  0  0  0  0  0  0  0  0  0  0  0  0
   17.0218   24.0555   14.2802 N   0  0  0  0  0  0  0  0  0  0  0  0
   17.1732   24.8140   15.2555 O   0  0  0  0  0  0  0  0  0  0  0  0
   16.6402   22.8798   14.3781 O   0  0  0  0  0  0  0  0  0  0  0  0
   17.7212   28.7428   15.6061 H   0  0  0  0  0  0  0  0  0  0  0  0
   18.5905   29.9806   14.6765 H   0  0  0  0  0  0  0  0  0  0  0  0
   18.9864   28.3471   12.8700 H   0  0  0  0  0  0  0  0  0  0  0  0
   20.6782   28.6925   14.7853 H   0  0  0  0  0  0  0  0  0  0  0  0
   19.8264   27.3192   15.5651 H   0  0  0  0  0  0  0  0  0  0  0  0
   16.7814   28.7021   11.8474 H   0  0  0  0  0  0  0  0  0  0  0  0
   17.2385   30.0908   12.8022 H   0  0  0  0  0  0  0  0  0  0  0  0
   21.5140   29.0073   18.3253 H   0  0  0  0  0  0  0  0  0  0  0  0
   22.1746   28.8763   16.6537 H   0  0  0  0  0  0  0  0  0  0  0  0
   21.3508   27.4638   17.4149 H   0  0  0  0  0  0  0  0  0  0  0  0
   19.0698   30.8470   16.3858 H   0  0  0  0  0  0  0  0  0  0  0  0
   20.8467   30.8593   16.0866 H   0  0  0  0  0  0  0  0  0  0  0  0
   20.1773   30.8892   17.7689 H   0  0  0  0  0  0  0  0  0  0  0  0
   14.9070   26.6015   15.2686 H   0  0  0  0  0  0  0  0  0  0  0  0
   13.8895   24.4175   14.6963 H   0  0  0  0  0  0  0  0  0  0  0  0
   12.9632   24.0349   12.4261 H   0  0  0  0  0  0  0  0  0  0  0  0
   13.0776   25.8440   10.7345 H   0  0  0  0  0  0  0  0  0  0  0  0
   14.1099   28.0181   11.2803 H   0  0  0  0  0  0  0  0  0  0  0  0
   17.5666   26.5198   14.6601 H   0  0  0  0  0  0  0  0  0  0  0  0
   17.9826   25.7940    9.2764 H   0  0  0  0  0  0  0  0  0  0  0  0
   16.9155   22.6387   12.0180 H   0  0  0  0  0  0  0  0  0  0  0  0
   18.2037   27.3393   11.1225 H   0  0  0  0  0  0  0  0  0  0  0  0
    2.4535   20.1604    8.6302 H   0  0  0  0  0  0  0  0  0  0  0  0
    2.6198   21.5025   10.6857 H   0  0  0  0  0  0  0  0  0  0  0  0
    4.5723   23.1747    6.4371 H   0  0  0  0  0  0  0  0  0  0  0  0
    3.4408   20.9865    6.5085 H   0  0  0  0  0  0  0  0  0  0  0  0
    2.6602   25.6012   10.4083 H   0  0  0  0  0  0  0  0  0  0  0  0
    2.6778   26.7175   12.6098 H   0  0  0  0  0  0  0  0  0  0  0  0
    4.8061   23.3835   14.3040 H   0  0  0  0  0  0  0  0  0  0  0  0
    4.8010   22.2556   12.1063 H   0  0  0  0  0  0  0  0  0  0  0  0
    4.9102   25.5138    9.3901 H   0  0  0  0  0  0  0  0  0  0  0  0
    4.5837   25.5545    7.6496 H   0  0  0  0  0  0  0  0  0  0  0  0
    6.4163   22.8235    9.1946 H   0  0  0  0  0  0  0  0  0  0  0  0
    7.0513   24.1919   10.1558 H   0  0  0  0  0  0  0  0  0  0  0  0
    8.3587   22.8274    7.7149 H   0  0  0  0  0  0  0  0  0  0  0  0
    8.8262   22.6866    9.4361 H   0  0  0  0  0  0  0  0  0  0  0  0
    8.5624   25.3251    6.6769 H   0  0  0  0  0  0  0  0  0  0  0  0
    9.2252   26.5690    7.7722 H   0  0  0  0  0  0  0  0  0  0  0  0
    7.2938   26.2897    9.3218 H   0  0  0  0  0  0  0  0  0  0  0  0
    6.7588   26.7450    7.6686 H   0  0  0  0  0  0  0  0  0  0  0  0
   11.1770   26.4578    7.8527 H   0  0  0  0  0  0  0  0  0  0  0  0
   13.0254   21.9827    9.1305 H   0  0  0  0  0  0  0  0  0  0  0  0
   10.6436   22.3023    9.0627 H   0  0  0  0  0  0  0  0  0  0  0  0
   15.1992   22.0478    8.8408 H   0  0  0  0  0  0  0  0  0  0  0  0
   19.3317   28.6989   17.4176 H   0  0  0  0  0  0  0  0  0  0  0  0
    6.5110   24.3326    7.2600 H   0  0  0  0  0  0  0  0  0  0  0  0
  1  2  1  0  0  0  0
  1  3  1  0  0  0  0
  1 60  1  0  0  0  0
  1 61  1  0  0  0  0
  2  4  1  0  0  0  0
  2 15  1  0  0  0  0
  2 62  1  6  0  0  0
  3  7  1  0  0  0  0
  3 63  1  0  0  0  0
  3 64  1  0  0  0  0
  4  5  1  0  0  0  0
  4 65  1  0  0  0  0
  4 66  1  0  0  0  0
  5  6  1  0  0  0  0
  6 10  2  0  0  0  0
  6 14  1  0  0  0  0
  7  8  1  0  0  0  0
  7  9  1  0  0  0  0
  7104  1  0  0  0  0
  8 67  1  0  0  0  0
  8 68  1  0  0  0  0
  8 69  1  0  0  0  0
  9 70  1  0  0  0  0
  9 71  1  0  0  0  0
  9 72  1  0  0  0  0
 10 11  1  0  0  0  0
 10 73  1  0  0  0  0
 11 12  2  0  0  0  0
 11 74  1  0  0  0  0
 12 13  1  0  0  0  0
 12 75  1  0  0  0  0
 13 14  2  0  0  0  0
 13 76  1  0  0  0  0
 14 77  1  0  0  0  0
 15 20  1  0  0  0  0
 15 78  1  0  0  0  0
 16 17  2  0  0  0  0
 16 21  1  0  0  0  0
 16 79  1  0  0  0  0
 17 18  1  0  0  0  0
 17 22  1  0  0  0  0
 18 19  2  0  0  0  0
 18 80  1  0  0  0  0
 19 20  1  0  0  0  0
 19 57  1  0  0  0  0
 20 21  2  0  0  0  0
 21 81  1  0  0  0  0
 22 23  2  0  0  0  0
 22 24  2  0  0  0  0
 22 53  1  0  0  0  0
 25 26  2  0  0  0  0
 25 30  1  0  0  0  0
 25 82  1  0  0  0  0
 26 27  1  0  0  0  0
 26 83  1  0  0  0  0
 27 28  2  0  0  0  0
 27 31  1  0  0  0  0
 28 29  1  0  0  0  0
 28 37  1  0  0  0  0
 29 30  2  0  0  0  0
 29 84  1  0  0  0  0
 30 85  1  0  0  0  0
 31 32  2  0  0  0  0
 31 36  1  0  0  0  0
 32 33  1  0  0  0  0
 32 86  1  0  0  0  0
 33 34  2  0  0  0  0
 33 87  1  0  0  0  0
 34 35  1  0  0  0  0
 34 56  1  0  0  0  0
 35 36  2  0  0  0  0
 35 88  1  0  0  0  0
 36 89  1  0  0  0  0
 37 38  1  0  0  0  0
 37 90  1  0  0  0  0
 37 91  1  0  0  0  0
 38 39  1  0  0  0  0
 38 43  1  0  0  0  0
 38105  1  6  0  0  0
 39 40  1  0  0  0  0
 39 92  1  0  0  0  0
 39 93  1  0  0  0  0
 40 41  1  0  0  0  0
 40 94  1  0  0  0  0
 40 95  1  0  0  0  0
 41 42  1  0  0  0  0
 41 44  1  0  0  0  0
 42 43  1  0  0  0  0
 42 96  1  0  0  0  0
 42 97  1  0  0  0  0
 43 98  1  0  0  0  0
 43 99  1  0  0  0  0
 44 45  2  0  0  0  0
 44 47  1  0  0  0  0
 45 49  1  0  0  0  0
 45100  1  0  0  0  0
 46 47  2  0  0  0  0
 46 48  1  0  0  0  0
 46101  1  0  0  0  0
 47102  1  0  0  0  0
 48 49  2  0  0  0  0
 48 52  1  0  0  0  0
 49 50  1  0  0  0  0
 50 51  1  0  0  0  0
 50 54  2  0  0  0  0
 50 55  2  0  0  0  0
 51 52  2  0  0  0  0
 52 53  1  0  0  0  0
 53103  1  0  0  0  0
 57 58  2  0  0  0  0
 57 59  2  0  0  0  0
M  CHG  2   7   1  38   1
M  END
$$$$
