1ER
 OpenBabel04111919283D

 34 35  0  0  1  0  0  0  0  0999 V2000
  -10.7855    6.0572    9.9166 O   0  0  0  0  0  0  0  0  0  0  0  0
  -11.3193    6.8315   10.7429 C   0  0  0  0  0  0  0  0  0  0  0  0
  -12.3898    6.4096   11.5032 N   0  0  0  0  0  0  0  0  0  0  0  0
  -12.9192    7.2137   12.3617 C   0  0  0  0  0  0  0  0  0  0  0  0
  -12.5574    8.6169   12.6579 C   0  0  0  0  0  0  0  0  0  0  0  0
  -11.5262    9.1033   11.9465 C   0  0  0  0  0  0  0  0  0  0  0  0
  -10.6883    8.1792   11.1108 C   0  0  2  0  0  0  0  0  0  0  0  0
   -9.6706    8.8255   10.2062 C   0  0  0  0  0  0  0  0  0  0  0  0
   -9.6032    8.6624    8.8287 C   0  0  0  0  0  0  0  0  0  0  0  0
   -8.5071    9.1534    8.1205 C   0  0  0  0  0  0  0  0  0  0  0  0
   -7.4847    9.8258    8.7873 C   0  0  0  0  0  0  0  0  0  0  0  0
   -8.6311    9.5317   10.8555 C   0  0  0  0  0  0  0  0  0  0  0  0
   -7.5252   10.0433   10.1702 C   0  0  0  0  0  0  0  0  0  0  0  0
   -6.4056   10.7673   10.9082 C   0  0  0  0  0  0  0  0  0  0  0  0
   -6.8980   11.4259   12.2070 C   0  0  0  0  0  0  0  0  0  0  0  0
   -5.8080   11.8892   10.0459 C   0  0  0  0  0  0  0  0  0  0  0  0
   -5.2974    9.7704   11.2724 C   0  0  0  0  0  0  0  0  0  0  0  0
  -13.7669    6.8465   12.9527 H   0  0  0  0  0  0  0  0  0  0  0  0
  -13.0897    9.1735   13.4198 H   0  0  0  0  0  0  0  0  0  0  0  0
  -11.1640   10.1076   12.1394 H   0  0  0  0  0  0  0  0  0  0  0  0
  -10.0121    7.8037   11.8831 H   0  0  0  0  0  0  0  0  0  0  0  0
  -10.3697    8.1068    8.2966 H   0  0  0  0  0  0  0  0  0  0  0  0
   -8.4400    9.0025    7.0481 H   0  0  0  0  0  0  0  0  0  0  0  0
   -6.6461   10.1848    8.1964 H   0  0  0  0  0  0  0  0  0  0  0  0
   -8.6957    9.6324   11.9346 H   0  0  0  0  0  0  0  0  0  0  0  0
   -6.0805   11.9468   12.7152 H   0  0  0  0  0  0  0  0  0  0  0  0
   -7.2825   10.6855   12.9148 H   0  0  0  0  0  0  0  0  0  0  0  0
   -7.6936   12.1498   11.9958 H   0  0  0  0  0  0  0  0  0  0  0  0
   -5.4029   11.5102    9.1057 H   0  0  0  0  0  0  0  0  0  0  0  0
   -4.9813   12.3830   10.5665 H   0  0  0  0  0  0  0  0  0  0  0  0
   -6.5695   12.6415    9.8117 H   0  0  0  0  0  0  0  0  0  0  0  0
   -5.6863    8.9576   11.8956 H   0  0  0  0  0  0  0  0  0  0  0  0
   -4.4990   10.2693   11.8353 H   0  0  0  0  0  0  0  0  0  0  0  0
   -4.8504    9.3279   10.3769 H   0  0  0  0  0  0  0  0  0  0  0  0
  1  2  2  0  0  0  0
  2  3  1  0  0  0  0
  2  7  1  0  0  0  0
  3  4  2  0  0  0  0
  4  5  1  0  0  0  0
  4 18  1  0  0  0  0
  5  6  2  0  0  0  0
  5 19  1  0  0  0  0
  6  7  1  0  0  0  0
  6 20  1  0  0  0  0
  7  8  1  0  0  0  0
  7 21  1  1  0  0  0
  8  9  2  0  0  0  0
  8 12  1  0  0  0  0
  9 10  1  0  0  0  0
  9 22  1  0  0  0  0
 10 11  2  0  0  0  0
 10 23  1  0  0  0  0
 11 13  1  0  0  0  0
 11 24  1  0  0  0  0
 12 13  2  0  0  0  0
 12 25  1  0  0  0  0
 13 14  1  0  0  0  0
 14 15  1  0  0  0  0
 14 16  1  0  0  0  0
 14 17  1  0  0  0  0
 15 26  1  0  0  0  0
 15 27  1  0  0  0  0
 15 28  1  0  0  0  0
 16 29  1  0  0  0  0
 16 30  1  0  0  0  0
 16 31  1  0  0  0  0
 17 32  1  0  0  0  0
 17 33  1  0  0  0  0
 17 34  1  0  0  0  0
M  END
$$$$
