1GD
 OpenBabel04111919343D

 37 38  0  0  0  0  0  0  0  0999 V2000
   20.5602    7.7507   13.5479 C   0  0  0  0  0  0  0  0  0  0  0  0
   20.6863   10.1361   14.3792 C   0  0  0  0  0  0  0  0  0  0  0  0
   19.5214   11.9442   13.2613 C   0  0  0  0  0  0  0  0  0  0  0  0
   17.8710    3.2060   14.8410 C   0  0  0  0  0  0  0  0  0  0  0  0
   17.3399    2.1444   15.5860 C   0  0  0  0  0  0  0  0  0  0  0  0
   15.8990   -0.5256   16.0197 N   0  0  0  0  0  0  0  0  0  0  0  0
   15.3014    0.7914   16.8537 S   0  0  0  0  0  0  0  0  0  0  0  0
   15.9219    0.8171   18.1618 O   0  0  0  0  0  0  0  0  0  0  0  0
   13.8761    0.7582   16.6724 O   0  0  0  0  0  0  0  0  0  0  0  0
   15.9738    2.1302   15.9087 C   0  0  0  0  0  0  0  0  0  0  0  0
   15.1473    3.1665   15.4917 C   0  0  0  0  0  0  0  0  0  0  0  0
   15.6835    4.2221   14.7501 C   0  0  0  0  0  0  0  0  0  0  0  0
   17.0551    4.2677   14.4267 C   0  0  0  0  0  0  0  0  0  0  0  0
   17.5946    5.3451   13.5181 C   0  0  0  0  0  0  0  0  0  0  0  0
   18.7266    6.1116   14.0188 N   0  0  0  0  0  0  0  0  0  0  0  0
   19.4678    6.8062   13.0761 C   0  0  0  0  0  0  0  0  0  0  0  0
   19.2479    6.6612   11.8676 O   0  0  0  0  0  0  0  0  0  0  0  0
   20.1916    9.2170   13.4434 C   0  0  0  0  0  0  0  0  0  0  0  0
   20.3435   11.4903   14.2909 C   0  0  0  0  0  0  0  0  0  0  0  0
   19.0574   11.0527   12.3040 C   0  0  0  0  0  0  0  0  0  0  0  0
   19.4051    9.7041   12.3868 C   0  0  0  0  0  0  0  0  0  0  0  0
   21.4375    7.5725   12.9098 H   0  0  0  0  0  0  0  0  0  0  0  0
   20.8586    7.4984   14.5723 H   0  0  0  0  0  0  0  0  0  0  0  0
   21.3349    9.8108   15.1883 H   0  0  0  0  0  0  0  0  0  0  0  0
   19.2528   12.9963   13.1995 H   0  0  0  0  0  0  0  0  0  0  0  0
   18.9226    3.1903   14.5577 H   0  0  0  0  0  0  0  0  0  0  0  0
   17.9960    1.3395   15.9071 H   0  0  0  0  0  0  0  0  0  0  0  0
   16.8366   -0.8407   16.2533 H   0  0  0  0  0  0  0  0  0  0  0  0
   15.1964   -1.1962   15.7038 H   0  0  0  0  0  0  0  0  0  0  0  0
   14.0821    3.1528   15.7298 H   0  0  0  0  0  0  0  0  0  0  0  0
   15.0123    5.0064   14.4028 H   0  0  0  0  0  0  0  0  0  0  0  0
   16.8054    6.0655   13.2603 H   0  0  0  0  0  0  0  0  0  0  0  0
   17.8969    4.8635   12.5883 H   0  0  0  0  0  0  0  0  0  0  0  0
   18.8008    6.3307   15.0041 H   0  0  0  0  0  0  0  0  0  0  0  0
   20.7176   12.1916   15.0292 H   0  0  0  0  0  0  0  0  0  0  0  0
   18.4229   11.3939   11.4906 H   0  0  0  0  0  0  0  0  0  0  0  0
   19.0379    9.0371   11.6091 H   0  0  0  0  0  0  0  0  0  0  0  0
  1 16  1  0  0  0  0
  1 18  1  0  0  0  0
  1 22  1  0  0  0  0
  1 23  1  0  0  0  0
  2 18  2  0  0  0  0
  2 19  1  0  0  0  0
  2 24  1  0  0  0  0
  3 19  2  0  0  0  0
  3 20  1  0  0  0  0
  3 25  1  0  0  0  0
  4  5  2  0  0  0  0
  4 13  1  0  0  0  0
  4 26  1  0  0  0  0
  5 10  1  0  0  0  0
  5 27  1  0  0  0  0
  6  7  1  0  0  0  0
  6 28  1  0  0  0  0
  6 29  1  0  0  0  0
  7  8  2  0  0  0  0
  7  9  2  0  0  0  0
  7 10  1  0  0  0  0
 10 11  2  0  0  0  0
 11 12  1  0  0  0  0
 11 30  1  0  0  0  0
 12 13  2  0  0  0  0
 12 31  1  0  0  0  0
 13 14  1  0  0  0  0
 14 15  1  0  0  0  0
 14 32  1  0  0  0  0
 14 33  1  0  0  0  0
 15 16  1  0  0  0  0
 15 34  1  0  0  0  0
 16 17  2  0  0  0  0
 18 21  1  0  0  0  0
 19 35  1  0  0  0  0
 20 21  2  0  0  0  0
 20 36  1  0  0  0  0
 21 37  1  0  0  0  0
M  END
$$$$
