1GG
 OpenBabel04111919333D

 65 68  0  0  1  0  0  0  0  0999 V2000
    9.6114   34.4937   28.8040 C   0  0  0  0  0  0  0  0  0  0  0  0
    8.8630   35.6826   28.8984 C   0  0  0  0  0  0  0  0  0  0  0  0
    8.6095   36.4695   27.7783 C   0  0  0  0  0  0  0  0  0  0  0  0
    9.0832   36.0616   26.5275 C   0  0  0  0  0  0  0  0  0  0  0  0
    0.0088   37.3218   24.8295 Cl  0  0  0  0  0  0  0  0  0  0  0  0
    9.8478   34.8918   26.4180 C   0  0  0  0  0  0  0  0  0  0  0  0
   10.1036   34.1146   27.5475 C   0  0  0  0  0  0  0  0  0  0  0  0
    9.9053   33.6953   30.0143 C   0  0  0  0  0  0  0  0  0  0  0  0
   10.3551   32.4641   29.9257 N   0  0  0  0  0  0  0  0  0  0  0  0
    9.7251   34.2426   31.1994 N   0  0  0  0  0  0  0  0  0  0  0  0
    8.7061   36.8348   25.2962 C   0  0  0  0  0  0  0  0  0  0  0  0
    7.3807   36.4741   24.8678 N   0  0  0  0  0  0  0  0  0  0  0  0
    6.3078   37.3772   24.9668 C   0  0  0  0  0  0  0  0  0  0  0  0
    6.4238   38.4856   25.4368 O   0  0  0  0  0  0  0  0  0  0  0  0
    5.0004   36.7355   24.5001 C   0  0  2  0  0  0  0  0  0  0  0  0
    4.4450   37.1644   23.1485 C   0  0  0  0  0  0  0  0  0  0  0  0
    2.8937   37.1401   23.2945 C   0  0  0  0  0  0  0  0  0  0  0  0
    2.6718   37.0103   24.8050 C   0  0  0  0  0  0  0  0  0  0  0  0
    3.9009   36.8469   25.4067 N   0  3  0  0  0  0  0  0  0  0  0  0
    2.3125   35.9333   22.5121 C   0  0  0  0  0  0  0  0  0  0  0  0
    2.2673   38.4238   22.6897 C   0  0  0  0  0  0  0  0  0  0  0  0
    2.8932   34.5725   22.8675 C   0  0  0  0  0  0  0  0  0  0  0  0
    2.6225   39.7247   23.3931 C   0  0  0  0  0  0  0  0  0  0  0  0
    1.5710   37.0659   25.5464 C   0  0  0  0  0  0  0  0  0  0  0  0
    1.5608   36.9263   26.9346 N   0  0  0  0  0  0  0  0  0  0  0  0
    2.6737   36.7228   27.5433 C   0  0  0  0  0  0  0  0  0  0  0  0
    4.0308   36.6516   26.7550 C   0  0  0  0  0  0  0  0  0  0  0  0
    5.0725   36.4538   27.3520 O   0  0  0  0  0  0  0  0  0  0  0  0
    2.8228   36.5392   28.9612 N   0  0  0  0  0  0  0  0  0  0  0  0
    1.6710   36.7126   29.7768 C   0  0  0  0  0  0  0  0  0  0  0  0
    1.4559   35.9627   31.0985 C   0  0  0  0  0  0  0  0  0  0  0  0
    1.5598   37.3132   31.8467 C   0  0  0  0  0  0  0  0  0  0  0  0
    1.3556   38.0348   30.4925 C   0  0  0  0  0  0  0  0  0  0  0  0
    8.4562   36.0147   29.8483 H   0  0  0  0  0  0  0  0  0  0  0  0
    8.0325   37.3958   27.8695 H   0  0  0  0  0  0  0  0  0  0  0  0
   10.2455   34.5932   25.4476 H   0  0  0  0  0  0  0  0  0  0  0  0
   10.7014   33.2153   27.4295 H   0  0  0  0  0  0  0  0  0  0  0  0
   10.5756   31.9103   30.7419 H   0  0  0  0  0  0  0  0  0  0  0  0
    9.3903   35.1924   31.2875 H   0  0  0  0  0  0  0  0  0  0  0  0
    9.9284   33.7513   32.0545 H   0  0  0  0  0  0  0  0  0  0  0  0
    9.3966   36.5985   24.4792 H   0  0  0  0  0  0  0  0  0  0  0  0
    8.7528   37.9071   25.4939 H   0  0  0  0  0  0  0  0  0  0  0  0
    7.2064   35.5310   24.5422 H   0  0  0  0  0  0  0  0  0  0  0  0
    5.2489   35.6798   24.4197 H   0  0  0  0  0  0  0  0  0  0  0  0
    4.7669   36.4449   22.3866 H   0  0  0  0  0  0  0  0  0  0  0  0
    4.7965   38.1464   22.8258 H   0  0  0  0  0  0  0  0  0  0  0  0
    2.4813   36.1047   21.4388 H   0  0  0  0  0  0  0  0  0  0  0  0
    1.2309   35.8939   22.6756 H   0  0  0  0  0  0  0  0  0  0  0  0
    1.1769   38.3278   22.6913 H   0  0  0  0  0  0  0  0  0  0  0  0
    2.5787   38.5079   21.6396 H   0  0  0  0  0  0  0  0  0  0  0  0
    2.4231   33.7910   22.2609 H   0  0  0  0  0  0  0  0  0  0  0  0
    2.7214   34.3438   23.9223 H   0  0  0  0  0  0  0  0  0  0  0  0
    3.9684   34.5409   22.6742 H   0  0  0  0  0  0  0  0  0  0  0  0
    2.1318   40.5702   22.8968 H   0  0  0  0  0  0  0  0  0  0  0  0
    3.7009   39.8954   23.3695 H   0  0  0  0  0  0  0  0  0  0  0  0
    2.2935   39.7039   24.4352 H   0  0  0  0  0  0  0  0  0  0  0  0
    3.7120   36.1598   29.2519 H   0  0  0  0  0  0  0  0  0  0  0  0
    0.8505   36.4710   29.1354 H   0  0  0  0  0  0  0  0  0  0  0  0
    2.1629   35.1897   31.4101 H   0  0  0  0  0  0  0  0  0  0  0  0
    0.4394   35.5241   31.1403 H   0  0  0  0  0  0  0  0  0  0  0  0
    2.5448   37.4893   32.2927 H   0  0  0  0  0  0  0  0  0  0  0  0
    0.7910   37.4984   32.6110 H   0  0  0  0  0  0  0  0  0  0  0  0
    0.3050   38.3344   30.3161 H   0  0  0  0  0  0  0  0  0  0  0  0
    1.9852   38.9116   30.3194 H   0  0  0  0  0  0  0  0  0  0  0  0
   10.4977   32.0043   29.0266 H   0  0  0  0  0  0  0  0  0  0  0  0
  1  2  2  0  0  0  0
  1  7  1  0  0  0  0
  1  8  1  0  0  0  0
  2  3  1  0  0  0  0
  2 34  1  0  0  0  0
  3  4  2  0  0  0  0
  3 35  1  0  0  0  0
  4  6  1  0  0  0  0
  4 11  1  0  0  0  0
  5 24  1  0  0  0  0
  6  7  2  0  0  0  0
  6 36  1  0  0  0  0
  7 37  1  0  0  0  0
  8  9  2  0  0  0  0
  8 10  1  0  0  0  0
  9 38  1  0  0  0  0
  9 65  1  0  0  0  0
 10 39  1  0  0  0  0
 10 40  1  0  0  0  0
 11 12  1  0  0  0  0
 11 41  1  0  0  0  0
 11 42  1  0  0  0  0
 12 13  1  0  0  0  0
 12 43  1  0  0  0  0
 13 14  2  0  0  0  0
 13 15  1  0  0  0  0
 15 16  1  0  0  0  0
 15 19  1  0  0  0  0
 15 44  1  6  0  0  0
 16 17  1  0  0  0  0
 16 45  1  0  0  0  0
 16 46  1  0  0  0  0
 17 18  1  0  0  0  0
 17 20  1  0  0  0  0
 17 21  1  0  0  0  0
 18 19  1  0  0  0  0
 18 24  2  0  0  0  0
 19 27  1  0  0  0  0
 20 22  1  0  0  0  0
 20 47  1  0  0  0  0
 20 48  1  0  0  0  0
 21 23  1  0  0  0  0
 21 49  1  0  0  0  0
 21 50  1  0  0  0  0
 22 51  1  0  0  0  0
 22 52  1  0  0  0  0
 22 53  1  0  0  0  0
 23 54  1  0  0  0  0
 23 55  1  0  0  0  0
 23 56  1  0  0  0  0
 24 25  1  0  0  0  0
 25 26  2  0  0  0  0
 26 27  1  0  0  0  0
 26 29  1  0  0  0  0
 27 28  2  0  0  0  0
 29 30  1  0  0  0  0
 29 57  1  0  0  0  0
 30 31  1  0  0  0  0
 30 33  1  0  0  0  0
 30 58  1  0  0  0  0
 31 32  1  0  0  0  0
 31 59  1  0  0  0  0
 31 60  1  0  0  0  0
 32 33  1  0  0  0  0
 32 61  1  0  0  0  0
 32 62  1  0  0  0  0
 33 63  1  0  0  0  0
 33 64  1  0  0  0  0
M  CHG  1  19   1
M  END
$$$$
