1GO
 OpenBabel04111919353D

 26 27  0  0  0  0  0  0  0  0999 V2000
   15.9615    6.1970   13.0853 C   0  0  0  0  0  0  0  0  0  0  0  0
   15.1607    7.6471   11.2338 C   0  0  0  0  0  0  0  0  0  0  0  0
   13.2259    8.4277   10.2247 C   0  0  0  0  0  0  0  0  0  0  0  0
   15.8109   -0.2897   16.0489 N   0  0  0  0  0  0  0  0  0  0  0  0
   15.3129    1.1889   16.6938 S   0  0  0  0  0  0  0  0  0  0  0  0
   15.7812    1.2503   18.0642 O   0  0  0  0  0  0  0  0  0  0  0  0
   13.8828    1.3219   16.4936 O   0  0  0  0  0  0  0  0  0  0  0  0
   16.1134    2.4564   15.7650 C   0  0  0  0  0  0  0  0  0  0  0  0
   17.4257    2.5357   15.6524 N   0  0  0  0  0  0  0  0  0  0  0  0
   17.8263    3.6253   14.8901 N   0  0  0  0  0  0  0  0  0  0  0  0
   16.8246    4.3504   14.4191 C   0  0  0  0  0  0  0  0  0  0  0  0
   17.0244    5.4918   13.6245 N   0  0  0  0  0  0  0  0  0  0  0  0
   14.7652    5.8985   13.3009 O   0  0  0  0  0  0  0  0  0  0  0  0
   16.2667    7.4073   12.2284 C   0  0  0  0  0  0  0  0  0  0  0  0
   14.0308    8.4217   11.3926 C   0  0  0  0  0  0  0  0  0  0  0  0
   13.7157    7.6635    9.1863 C   0  0  0  0  0  0  0  0  0  0  0  0
   15.1996    6.9354    9.6694 S   0  0  0  0  0  0  0  0  0  0  0  0
   15.2921    3.6858   14.9194 S   0  0  0  0  0  0  0  0  0  0  0  0
   12.3074    8.9835   10.1588 H   0  0  0  0  0  0  0  0  0  0  0  0
   16.7968   -0.5435   16.0744 H   0  0  0  0  0  0  0  0  0  0  0  0
   15.1304   -0.9127   15.6280 H   0  0  0  0  0  0  0  0  0  0  0  0
   17.9861    5.7848   13.4383 H   0  0  0  0  0  0  0  0  0  0  0  0
   17.2041    7.2504   11.7052 H   0  0  0  0  0  0  0  0  0  0  0  0
   16.3355    8.2810   12.8884 H   0  0  0  0  0  0  0  0  0  0  0  0
   13.7708    8.9653   12.2927 H   0  0  0  0  0  0  0  0  0  0  0  0
   13.2582    7.5268    8.2124 H   0  0  0  0  0  0  0  0  0  0  0  0
  1 12  1  0  0  0  0
  1 13  2  0  0  0  0
  1 14  1  0  0  0  0
  2 14  1  0  0  0  0
  2 15  2  0  0  0  0
  2 17  1  0  0  0  0
  3 15  1  0  0  0  0
  3 16  2  0  0  0  0
  3 19  1  0  0  0  0
  4  5  1  0  0  0  0
  4 20  1  0  0  0  0
  4 21  1  0  0  0  0
  5  6  2  0  0  0  0
  5  7  2  0  0  0  0
  5  8  1  0  0  0  0
  8  9  2  0  0  0  0
  8 18  1  0  0  0  0
  9 10  1  0  0  0  0
 10 11  2  0  0  0  0
 11 12  1  0  0  0  0
 11 18  1  0  0  0  0
 12 22  1  0  0  0  0
 14 23  1  0  0  0  0
 14 24  1  0  0  0  0
 15 25  1  0  0  0  0
 16 17  1  0  0  0  0
 16 26  1  0  0  0  0
M  END
$$$$
