1J6
 OpenBabel04111919353D

 45 48  0  0  1  0  0  0  0  0999 V2000
   10.7991   57.1557   -1.6710 C   0  0  0  0  0  0  0  0  0  0  0  0
    9.7539   56.5619   -0.7306 C   0  0  1  0  0  0  0  0  0  0  0  0
   10.3495   56.2349    0.5273 O   0  0  0  0  0  0  0  0  0  0  0  0
    8.6278   57.5215   -0.4668 C   0  0  0  0  0  0  0  0  0  0  0  0
    7.4264   57.1900    0.1714 N   0  3  0  0  0  0  0  0  0  0  0  0
    6.6771   58.3296    0.2229 C   0  0  0  0  0  0  0  0  0  0  0  0
    7.4407   59.3123   -0.3905 C   0  0  0  0  0  0  0  0  0  0  0  0
    8.6361   58.7959   -0.8036 N   0  0  0  0  0  0  0  0  0  0  0  0
    6.9325   60.6183   -0.5099 C   0  0  0  0  0  0  0  0  0  0  0  0
    5.6977   60.9770   -0.0425 N   0  0  0  0  0  0  0  0  0  0  0  0
    4.9920   59.9837    0.5388 C   0  0  0  0  0  0  0  0  0  0  0  0
    5.4274   58.6779    0.6940 C   0  0  0  0  0  0  0  0  0  0  0  0
    4.3827   57.9568    1.3364 C   0  0  0  0  0  0  0  0  0  0  0  0
    3.3434   58.8398    1.5525 C   0  0  0  0  0  0  0  0  0  0  0  0
    3.7249   60.0756    1.0792 N   0  3  0  0  0  0  0  0  0  0  0  0
    7.1381   55.8408    0.6650 C   0  0  1  0  0  0  0  0  0  0  0  0
    6.8350   55.8716    2.1572 C   0  0  0  0  0  0  0  0  0  0  0  0
    6.5087   54.4840    2.6808 C   0  0  0  0  0  0  0  0  0  0  0  0
    5.4244   53.7554    1.8759 C   0  0  1  0  0  0  0  0  0  0  0  0
    5.7028   53.7881    0.3587 C   0  0  0  0  0  0  0  0  0  0  0  0
    6.0001   55.2033   -0.1260 C   0  0  0  0  0  0  0  0  0  0  0  0
    5.3045   52.3130    2.3898 C   0  0  0  0  0  0  0  0  0  0  0  0
    4.1635   51.6624    1.7666 C   0  0  0  0  0  0  0  0  0  0  0  0
    3.2442   51.2413    1.1654 N   0  0  0  0  0  0  0  0  0  0  0  0
   10.3430   57.4011   -2.6407 H   0  0  0  0  0  0  0  0  0  0  0  0
   11.6156   56.4415   -1.8402 H   0  0  0  0  0  0  0  0  0  0  0  0
   11.2303   58.0734   -1.2470 H   0  0  0  0  0  0  0  0  0  0  0  0
    9.3677   55.6484   -1.1896 H   0  0  0  0  0  0  0  0  0  0  0  0
    9.6653   55.8750    1.1114 H   0  0  0  0  0  0  0  0  0  0  0  0
    7.5120   61.4049   -0.9876 H   0  0  0  0  0  0  0  0  0  0  0  0
    4.3168   56.9182    1.6317 H   0  0  0  0  0  0  0  0  0  0  0  0
    2.3777   58.6407    2.0098 H   0  0  0  0  0  0  0  0  0  0  0  0
    3.1681   60.9220    1.1181 H   0  0  0  0  0  0  0  0  0  0  0  0
    8.0254   55.1943    0.5235 H   0  0  0  0  0  0  0  0  0  0  0  0
    5.9900   56.5252    2.3428 H   0  0  0  0  0  0  0  0  0  0  0  0
    7.6840   56.2934    2.7116 H   0  0  0  0  0  0  0  0  0  0  0  0
    6.1754   54.5638    3.7241 H   0  0  0  0  0  0  0  0  0  0  0  0
    7.4267   53.8837    2.6548 H   0  0  0  0  0  0  0  0  0  0  0  0
    4.4645   54.2660    2.0461 H   0  0  0  0  0  0  0  0  0  0  0  0
    4.8287   53.4012   -0.1889 H   0  0  0  0  0  0  0  0  0  0  0  0
    6.5603   53.1407    0.1253 H   0  0  0  0  0  0  0  0  0  0  0  0
    6.2530   55.1842   -1.1935 H   0  0  0  0  0  0  0  0  0  0  0  0
    5.1020   55.8130   -0.0037 H   0  0  0  0  0  0  0  0  0  0  0  0
    5.1910   52.3165    3.4924 H   0  0  0  0  0  0  0  0  0  0  0  0
    6.2355   51.7551    2.1658 H   0  0  0  0  0  0  0  0  0  0  0  0
  1  2  1  0  0  0  0
  1 25  1  0  0  0  0
  1 26  1  0  0  0  0
  1 27  1  0  0  0  0
  2  3  1  0  0  0  0
  2  4  1  0  0  0  0
  2 28  1  6  0  0  0
  3 29  1  0  0  0  0
  4  5  2  0  0  0  0
  4  8  1  0  0  0  0
  5  6  1  0  0  0  0
  5 16  1  0  0  0  0
  6  7  1  0  0  0  0
  6 12  2  0  0  0  0
  7  8  1  0  0  0  0
  7  9  2  0  0  0  0
  9 10  1  0  0  0  0
  9 30  1  0  0  0  0
 10 11  1  0  0  0  0
 11 12  1  0  0  0  0
 11 15  2  0  0  0  0
 12 13  1  0  0  0  0
 13 14  2  0  0  0  0
 13 31  1  0  0  0  0
 14 15  1  0  0  0  0
 14 32  1  0  0  0  0
 15 33  1  0  0  0  0
 16 17  1  0  0  0  0
 16 21  1  0  0  0  0
 16 34  1  6  0  0  0
 17 18  1  0  0  0  0
 17 35  1  0  0  0  0
 17 36  1  0  0  0  0
 18 19  1  0  0  0  0
 18 37  1  0  0  0  0
 18 38  1  0  0  0  0
 19 20  1  0  0  0  0
 19 22  1  0  0  0  0
 19 39  1  1  0  0  0
 20 21  1  0  0  0  0
 20 40  1  0  0  0  0
 20 41  1  0  0  0  0
 21 42  1  0  0  0  0
 21 43  1  0  0  0  0
 22 23  1  0  0  0  0
 22 44  1  0  0  0  0
 22 45  1  0  0  0  0
 23 24  3  0  0  0  0
M  CHG  2   5   1  15   1
M  END
$$$$
