1K0
 OpenBabel04111920273D

 42 44  0  0  0  0  0  0  0  0999 V2000
   22.4401   31.4930   20.6628 O   0  0  0  0  0  0  0  0  0  0  0  0
   23.2321   31.2494   19.5030 C   0  0  0  0  0  0  0  0  0  0  0  0
   22.4571   32.7657   21.1760 C   0  0  0  0  0  0  0  0  0  0  0  0
   21.5763   32.9750   22.2400 C   0  0  0  0  0  0  0  0  0  0  0  0
   21.4796   34.2220   22.8721 C   0  0  0  0  0  0  0  0  0  0  0  0
   23.0801   37.5538   22.4019 N   0  3  0  0  0  0  0  0  0  0  0  0
   19.8692   33.4022   24.4347 C   0  0  0  0  0  0  0  0  0  0  0  0
   20.6402   34.4786   23.9201 O   0  0  0  0  0  0  0  0  0  0  0  0
   22.2808   35.2759   22.4038 C   0  0  0  0  0  0  0  0  0  0  0  0
   27.1783   41.5884   19.7494 O   0  0  0  0  0  0  0  0  0  0  0  0
   24.0017   36.0949   20.8260 N   0  0  0  0  0  0  0  0  0  0  0  0
   22.2406   36.6389   22.9861 C   0  0  0  0  0  0  0  0  0  0  0  0
   23.9167   37.2773   21.3478 C   0  0  0  0  0  0  0  0  0  0  0  0
   21.5301   36.9873   23.9165 O   0  0  0  0  0  0  0  0  0  0  0  0
   24.7444   38.4090   20.8529 C   0  0  0  0  0  0  0  0  0  0  0  0
   25.9889   38.1481   20.2707 C   0  0  0  0  0  0  0  0  0  0  0  0
   26.8303   39.2048   19.8839 C   0  0  0  0  0  0  0  0  0  0  0  0
   28.1931   38.8929   19.3398 C   0  0  0  0  0  0  0  0  0  0  0  0
   26.3852   40.5203   20.0669 C   0  0  0  0  0  0  0  0  0  0  0  0
   25.1228   40.7983   20.5969 C   0  0  0  0  0  0  0  0  0  0  0  0
   24.6388   42.2100   20.7468 C   0  0  0  0  0  0  0  0  0  0  0  0
   24.3035   39.7316   20.9824 C   0  0  0  0  0  0  0  0  0  0  0  0
   23.1771   35.0743   21.3400 C   0  0  0  0  0  0  0  0  0  0  0  0
   23.2597   33.8108   20.7386 C   0  0  0  0  0  0  0  0  0  0  0  0
   23.0919   30.2019   19.2180 H   0  0  0  0  0  0  0  0  0  0  0  0
   24.2969   31.3949   19.7111 H   0  0  0  0  0  0  0  0  0  0  0  0
   22.9041   31.8698   18.6621 H   0  0  0  0  0  0  0  0  0  0  0  0
   20.9641   32.1368   22.5578 H   0  0  0  0  0  0  0  0  0  0  0  0
   23.0698   38.4569   22.8502 H   0  0  0  0  0  0  0  0  0  0  0  0
   19.2800   33.7774   25.2768 H   0  0  0  0  0  0  0  0  0  0  0  0
   20.5143   32.6007   24.8098 H   0  0  0  0  0  0  0  0  0  0  0  0
   19.1698   33.0294   23.6793 H   0  0  0  0  0  0  0  0  0  0  0  0
   27.5041   41.4500   18.8450 H   0  0  0  0  0  0  0  0  0  0  0  0
   26.3175   37.1180   20.1459 H   0  0  0  0  0  0  0  0  0  0  0  0
   28.3589   37.8114   19.2835 H   0  0  0  0  0  0  0  0  0  0  0  0
   28.9642   39.3121   19.9936 H   0  0  0  0  0  0  0  0  0  0  0  0
   28.3037   39.2980   18.3298 H   0  0  0  0  0  0  0  0  0  0  0  0
   23.6267   42.2438   21.1641 H   0  0  0  0  0  0  0  0  0  0  0  0
   24.6108   42.7037   19.7696 H   0  0  0  0  0  0  0  0  0  0  0  0
   25.2977   42.7669   21.4205 H   0  0  0  0  0  0  0  0  0  0  0  0
   23.3135   39.9514   21.3695 H   0  0  0  0  0  0  0  0  0  0  0  0
   23.9679   33.6852   19.9267 H   0  0  0  0  0  0  0  0  0  0  0  0
  1  2  1  0  0  0  0
  1  3  1  0  0  0  0
  2 25  1  0  0  0  0
  2 26  1  0  0  0  0
  2 27  1  0  0  0  0
  3  4  2  0  0  0  0
  3 24  1  0  0  0  0
  4  5  1  0  0  0  0
  4 28  1  0  0  0  0
  5  8  1  0  0  0  0
  5  9  2  0  0  0  0
  6 12  1  0  0  0  0
  6 13  1  0  0  0  0
  6 29  1  0  0  0  0
  7  8  1  0  0  0  0
  7 30  1  0  0  0  0
  7 31  1  0  0  0  0
  7 32  1  0  0  0  0
  9 12  1  0  0  0  0
  9 23  1  0  0  0  0
 10 19  1  0  0  0  0
 10 33  1  0  0  0  0
 11 13  2  0  0  0  0
 11 23  1  0  0  0  0
 12 14  2  0  0  0  0
 13 15  1  0  0  0  0
 15 16  2  0  0  0  0
 15 22  1  0  0  0  0
 16 17  1  0  0  0  0
 16 34  1  0  0  0  0
 17 18  1  0  0  0  0
 17 19  2  0  0  0  0
 18 35  1  0  0  0  0
 18 36  1  0  0  0  0
 18 37  1  0  0  0  0
 19 20  1  0  0  0  0
 20 21  1  0  0  0  0
 20 22  2  0  0  0  0
 21 38  1  0  0  0  0
 21 39  1  0  0  0  0
 21 40  1  0  0  0  0
 22 41  1  0  0  0  0
 23 24  2  0  0  0  0
 24 42  1  0  0  0  0
M  CHG  1   6   1
M  END
$$$$
