1K0
 OpenBabel04111920273D

 49 51  0  0  0  0  0  0  0  0999 V2000
   -7.5836   45.7269   38.6375 O   0  0  0  0  0  0  0  0  0  0  0  0
   -8.3736   46.9214   38.7621 C   0  0  0  0  0  0  0  0  0  0  0  0
   -7.5568   44.9006   39.7152 C   0  0  0  0  0  0  0  0  0  0  0  0
   -6.7948   43.7065   39.6059 C   0  0  0  0  0  0  0  0  0  0  0  0
   -6.6832   42.8196   40.6812 C   0  0  0  0  0  0  0  0  0  0  0  0
   -8.1152   42.6366   44.1210 N   0  3  0  0  0  0  0  0  0  0  0  0
   -5.4253   41.2660   39.3345 C   0  0  0  0  0  0  0  0  0  0  0  0
   -5.9217   41.6717   40.6124 O   0  0  0  0  0  0  0  0  0  0  0  0
   -7.3607   43.1060   41.8669 C   0  0  0  0  0  0  0  0  0  0  0  0
  -11.5797   45.0380   48.9176 O   0  0  0  0  0  0  0  0  0  0  0  0
   -8.9752   44.5423   43.0894 N   0  0  0  0  0  0  0  0  0  0  0  0
   -7.2820   42.2607   43.0951 C   0  0  0  0  0  0  0  0  0  0  0  0
   -8.9127   43.7497   44.1096 C   0  0  0  0  0  0  0  0  0  0  0  0
  -12.8638   44.6871   51.3519 O   0  0  0  0  0  0  0  0  0  0  0  0
   -6.5349   41.3039   43.2572 O   0  0  0  0  0  0  0  0  0  0  0  0
   -9.6718   44.0259   45.3512 C   0  0  0  0  0  0  0  0  0  0  0  0
   -9.8763   43.0625   46.3467 C   0  0  0  0  0  0  0  0  0  0  0  0
  -10.5381   43.3781   47.5474 C   0  0  0  0  0  0  0  0  0  0  0  0
  -10.6630   42.3218   48.6041 C   0  0  0  0  0  0  0  0  0  0  0  0
  -11.0162   44.6745   47.7330 C   0  0  0  0  0  0  0  0  0  0  0  0
  -12.9657   44.6405   48.9620 C   0  0  0  0  0  0  0  0  0  0  0  0
  -13.5300   45.2785   50.2245 C   0  0  0  0  0  0  0  0  0  0  0  0
  -10.8139   45.6539   46.7465 C   0  0  0  0  0  0  0  0  0  0  0  0
  -11.2535   47.0697   46.9667 C   0  0  0  0  0  0  0  0  0  0  0  0
  -10.1559   45.3163   45.5551 C   0  0  0  0  0  0  0  0  0  0  0  0
   -8.1969   44.2503   41.9564 C   0  0  0  0  0  0  0  0  0  0  0  0
   -8.2780   45.1390   40.8880 C   0  0  0  0  0  0  0  0  0  0  0  0
   -8.2804   47.5013   37.8353 H   0  0  0  0  0  0  0  0  0  0  0  0
   -8.0185   47.5459   39.5928 H   0  0  0  0  0  0  0  0  0  0  0  0
   -9.4337   46.6746   38.9062 H   0  0  0  0  0  0  0  0  0  0  0  0
   -6.2766   43.5060   38.6766 H   0  0  0  0  0  0  0  0  0  0  0  0
   -8.0689   42.0567   44.9399 H   0  0  0  0  0  0  0  0  0  0  0  0
   -4.8425   40.3431   39.4637 H   0  0  0  0  0  0  0  0  0  0  0  0
   -4.7608   42.0232   38.9017 H   0  0  0  0  0  0  0  0  0  0  0  0
   -6.2493   41.0548   38.6415 H   0  0  0  0  0  0  0  0  0  0  0  0
  -11.9043   44.8454   51.2326 H   0  0  0  0  0  0  0  0  0  0  0  0
   -9.5154   42.0484   46.2133 H   0  0  0  0  0  0  0  0  0  0  0  0
  -10.2366   41.3795   48.2456 H   0  0  0  0  0  0  0  0  0  0  0  0
  -11.7094   42.1384   48.8494 H   0  0  0  0  0  0  0  0  0  0  0  0
  -10.1262   42.6325   49.5051 H   0  0  0  0  0  0  0  0  0  0  0  0
  -13.0318   43.5497   49.0204 H   0  0  0  0  0  0  0  0  0  0  0  0
  -13.4804   44.9830   48.0587 H   0  0  0  0  0  0  0  0  0  0  0  0
  -13.3528   46.3637   50.2457 H   0  0  0  0  0  0  0  0  0  0  0  0
  -14.6075   45.1018   50.3227 H   0  0  0  0  0  0  0  0  0  0  0  0
  -11.0177   47.6790   46.0873 H   0  0  0  0  0  0  0  0  0  0  0  0
  -10.7311   47.4890   47.8328 H   0  0  0  0  0  0  0  0  0  0  0  0
  -12.3334   47.1089   47.1397 H   0  0  0  0  0  0  0  0  0  0  0  0
   -9.9966   46.0753   44.7883 H   0  0  0  0  0  0  0  0  0  0  0  0
   -8.8825   46.0323   40.9583 H   0  0  0  0  0  0  0  0  0  0  0  0
  1  2  1  0  0  0  0
  1  3  1  0  0  0  0
  2 28  1  0  0  0  0
  2 29  1  0  0  0  0
  2 30  1  0  0  0  0
  3  4  2  0  0  0  0
  3 27  1  0  0  0  0
  4  5  1  0  0  0  0
  4 31  1  0  0  0  0
  5  8  1  0  0  0  0
  5  9  2  0  0  0  0
  6 12  1  0  0  0  0
  6 13  1  0  0  0  0
  6 32  1  0  0  0  0
  7  8  1  0  0  0  0
  7 33  1  0  0  0  0
  7 34  1  0  0  0  0
  7 35  1  0  0  0  0
  9 12  1  0  0  0  0
  9 26  1  0  0  0  0
 10 20  1  0  0  0  0
 10 21  1  0  0  0  0
 11 13  2  0  0  0  0
 11 26  1  0  0  0  0
 12 15  2  0  0  0  0
 13 16  1  0  0  0  0
 14 22  1  0  0  0  0
 14 36  1  0  0  0  0
 16 17  2  0  0  0  0
 16 25  1  0  0  0  0
 17 18  1  0  0  0  0
 17 37  1  0  0  0  0
 18 19  1  0  0  0  0
 18 20  2  0  0  0  0
 19 38  1  0  0  0  0
 19 39  1  0  0  0  0
 19 40  1  0  0  0  0
 20 23  1  0  0  0  0
 21 22  1  0  0  0  0
 21 41  1  0  0  0  0
 21 42  1  0  0  0  0
 22 43  1  0  0  0  0
 22 44  1  0  0  0  0
 23 24  1  0  0  0  0
 23 25  2  0  0  0  0
 24 45  1  0  0  0  0
 24 46  1  0  0  0  0
 24 47  1  0  0  0  0
 25 48  1  0  0  0  0
 26 27  2  0  0  0  0
 27 49  1  0  0  0  0
M  CHG  1   6   1
M  END
$$$$
