1KZ
 OpenBabel04111919383D

 61 64  0  0  1  0  0  0  0  0999 V2000
    6.1223   19.6987   20.3497 C   0  0  0  0  0  0  0  0  0  0  0  0
    6.3030   19.0485   21.6066 O   0  0  0  0  0  0  0  0  0  0  0  0
    7.6165   18.7182   21.8175 C   0  0  0  0  0  0  0  0  0  0  0  0
    8.4029   18.2252   20.7796 C   0  0  0  0  0  0  0  0  0  0  0  0
    8.1503   18.8761   23.1073 C   0  0  0  0  0  0  0  0  0  0  0  0
    7.3702   19.3209   24.1466 O   0  0  0  0  0  0  0  0  0  0  0  0
    7.3684   20.7502   24.2614 C   0  0  0  0  0  0  0  0  0  0  0  0
    9.4771   18.5175   23.3497 C   0  0  0  0  0  0  0  0  0  0  0  0
   10.2623   18.0418   22.3062 C   0  0  0  0  0  0  0  0  0  0  0  0
    9.7139   17.9045   21.0293 C   0  0  0  0  0  0  0  0  0  0  0  0
   10.4194   17.4469   19.9703 O   0  0  0  0  0  0  0  0  0  0  0  0
   11.2521   16.3830   20.4160 C   0  0  0  0  0  0  0  0  0  0  0  0
   11.8258   15.8521   19.1547 C   0  0  0  0  0  0  0  0  0  0  0  0
   10.7620   15.0915   18.5872 O   0  0  0  0  0  0  0  0  0  0  0  0
   11.1051   14.3669   17.5139 C   0  0  0  0  0  0  0  0  0  0  0  0
   12.2603   14.2152   17.1123 O   0  0  0  0  0  0  0  0  0  0  0  0
    9.9136   13.7921   16.8261 C   0  0  2  0  0  0  0  0  0  0  0  0
   10.0166   14.1454   15.3564 C   0  0  0  0  0  0  0  0  0  0  0  0
    9.6595   15.6135   15.1087 C   0  0  0  0  0  0  0  0  0  0  0  0
    8.2895   15.9926   15.6661 C   0  0  0  0  0  0  0  0  0  0  0  0
    8.1960   15.6079   17.1273 C   0  0  0  0  0  0  0  0  0  0  0  0
    8.5808   14.2105   17.2619 N   0  0  0  0  0  0  0  0  0  0  0  0
    7.5918   13.1501   18.0408 S   0  0  0  0  0  0  0  0  0  0  0  0
    8.2417   11.8595   18.0292 O   0  0  0  0  0  0  0  0  0  0  0  0
    6.2786   13.3143   17.5244 O   0  0  0  0  0  0  0  0  0  0  0  0
    7.5575   13.7332   19.6995 C   0  0  0  0  0  0  0  0  0  0  0  0
    6.4720   14.4871   20.1132 C   0  0  0  0  0  0  0  0  0  0  0  0
    6.4187   14.8574   21.4195 C   0  0  0  0  0  0  0  0  0  0  0  0
    5.1783   15.7817   22.2432 S   0  0  0  0  0  0  0  0  0  0  0  0
    6.0770   15.6917   23.7499 C   0  0  0  0  0  0  0  0  0  0  0  0
    5.7100   16.1593   24.7906 O   0  0  0  0  0  0  0  0  0  0  0  0
    7.2507   14.9697   23.5596 N   0  3  0  0  0  0  0  0  0  0  0  0
    7.4384   14.5161   22.2844 C   0  0  0  0  0  0  0  0  0  0  0  0
    8.5414   13.8025   21.8925 C   0  0  0  0  0  0  0  0  0  0  0  0
    8.5839   13.3919   20.5714 C   0  0  0  0  0  0  0  0  0  0  0  0
    5.0656   19.9386   20.2137 H   0  0  0  0  0  0  0  0  0  0  0  0
    6.4217   19.0476   19.5257 H   0  0  0  0  0  0  0  0  0  0  0  0
    6.7109   20.6217   20.3270 H   0  0  0  0  0  0  0  0  0  0  0  0
    8.0050   18.0742   19.7817 H   0  0  0  0  0  0  0  0  0  0  0  0
    6.7103   21.0456   25.0964 H   0  0  0  0  0  0  0  0  0  0  0  0
    6.9921   21.2238   23.3479 H   0  0  0  0  0  0  0  0  0  0  0  0
    8.3778   21.1186   24.4792 H   0  0  0  0  0  0  0  0  0  0  0  0
    9.9122   18.6234   24.3402 H   0  0  0  0  0  0  0  0  0  0  0  0
   11.2982   17.7775   22.4981 H   0  0  0  0  0  0  0  0  0  0  0  0
   10.6434   15.6297   20.9427 H   0  0  0  0  0  0  0  0  0  0  0  0
   12.0430   16.7581   21.0672 H   0  0  0  0  0  0  0  0  0  0  0  0
   12.6888   15.2352   19.3794 H   0  0  0  0  0  0  0  0  0  0  0  0
   12.0852   16.6848   18.4905 H   0  0  0  0  0  0  0  0  0  0  0  0
   10.0475   12.7105   16.9351 H   0  0  0  0  0  0  0  0  0  0  0  0
    9.3222   13.4959   14.8180 H   0  0  0  0  0  0  0  0  0  0  0  0
   11.0356   13.9511   14.9971 H   0  0  0  0  0  0  0  0  0  0  0  0
    9.6671   15.7991   14.0345 H   0  0  0  0  0  0  0  0  0  0  0  0
   10.4106   16.2538   15.5882 H   0  0  0  0  0  0  0  0  0  0  0  0
    7.5091   15.4720   15.0952 H   0  0  0  0  0  0  0  0  0  0  0  0
    8.1358   17.0742   15.5578 H   0  0  0  0  0  0  0  0  0  0  0  0
    7.1714   15.7547   17.4847 H   0  0  0  0  0  0  0  0  0  0  0  0
    8.8580   16.2346   17.7287 H   0  0  0  0  0  0  0  0  0  0  0  0
    5.6955   14.7942   19.4273 H   0  0  0  0  0  0  0  0  0  0  0  0
    7.8693   14.8248   24.3111 H   0  0  0  0  0  0  0  0  0  0  0  0
    9.3287   13.5816   22.5901 H   0  0  0  0  0  0  0  0  0  0  0  0
    9.4195   12.8223   20.1948 H   0  0  0  0  0  0  0  0  0  0  0  0
  1  2  1  0  0  0  0
  1 36  1  0  0  0  0
  1 37  1  0  0  0  0
  1 38  1  0  0  0  0
  2  3  1  0  0  0  0
  3  4  2  0  0  0  0
  3  5  1  0  0  0  0
  4 10  1  0  0  0  0
  4 39  1  0  0  0  0
  5  6  1  0  0  0  0
  5  8  2  0  0  0  0
  6  7  1  0  0  0  0
  7 40  1  0  0  0  0
  7 41  1  0  0  0  0
  7 42  1  0  0  0  0
  8  9  1  0  0  0  0
  8 43  1  0  0  0  0
  9 10  2  0  0  0  0
  9 44  1  0  0  0  0
 10 11  1  0  0  0  0
 11 12  1  0  0  0  0
 12 13  1  0  0  0  0
 12 45  1  0  0  0  0
 12 46  1  0  0  0  0
 13 14  1  0  0  0  0
 13 47  1  0  0  0  0
 13 48  1  0  0  0  0
 14 15  1  0  0  0  0
 15 16  2  0  0  0  0
 15 17  1  0  0  0  0
 17 18  1  0  0  0  0
 17 22  1  0  0  0  0
 17 49  1  1  0  0  0
 18 19  1  0  0  0  0
 18 50  1  0  0  0  0
 18 51  1  0  0  0  0
 19 20  1  0  0  0  0
 19 52  1  0  0  0  0
 19 53  1  0  0  0  0
 20 21  1  0  0  0  0
 20 54  1  0  0  0  0
 20 55  1  0  0  0  0
 21 22  1  0  0  0  0
 21 56  1  0  0  0  0
 21 57  1  0  0  0  0
 22 23  1  0  0  0  0
 23 24  2  0  0  0  0
 23 25  2  0  0  0  0
 23 26  1  0  0  0  0
 26 27  2  0  0  0  0
 26 35  1  0  0  0  0
 27 28  1  0  0  0  0
 27 58  1  0  0  0  0
 28 29  1  0  0  0  0
 28 33  2  0  0  0  0
 29 30  1  0  0  0  0
 30 31  2  0  0  0  0
 30 32  1  0  0  0  0
 32 33  1  0  0  0  0
 32 59  1  0  0  0  0
 33 34  1  0  0  0  0
 34 35  2  0  0  0  0
 34 60  1  0  0  0  0
 35 61  1  0  0  0  0
M  CHG  1  32   1
M  END
$$$$
