1LH
 OpenBabel04111918023D

 57 58  0  0  1  0  0  0  0  0999 V2000
    0.6256   15.0924  -43.9948 C   0  0  0  0  0  0  0  0  0  0  0  0
    0.6771   13.9017  -43.0572 C   0  0  0  0  0  0  0  0  0  0  0  0
    0.5274   14.2970  -41.5935 C   0  0  1  0  0  0  0  0  0  0  0  0
    0.2984   13.0338  -40.7914 N   0  3  0  0  0  0  0  0  0  0  0  0
   -1.0785   12.4573  -40.6935 C   0  0  1  0  0  0  0  0  0  0  0  0
   -1.0071   11.0948  -40.0168 C   0  0  0  0  0  0  0  0  0  0  0  0
   -2.0236   13.4061  -39.9776 C   0  0  0  0  0  0  0  0  0  0  0  0
   -1.6380   13.6823  -38.5336 C   0  0  0  0  0  0  0  0  0  0  0  0
   -0.5204   14.0098  -38.2181 O   0  0  0  0  0  0  0  0  0  0  0  0
   -2.6898   13.5948  -37.6585 N   0  0  0  0  0  0  0  0  0  0  0  0
   -2.4697   13.7175  -36.2254 C   0  0  0  0  0  0  0  0  0  0  0  0
   -3.6218   14.4439  -35.5602 C   0  0  0  0  0  0  0  0  0  0  0  0
   -3.7106   15.8277  -36.0931 N   0  3  0  0  0  0  0  0  0  0  0  0
    1.7081   15.0836  -41.0646 C   0  0  0  0  0  0  0  0  0  0  0  0
    1.5435   16.4165  -40.6842 C   0  0  0  0  0  0  0  0  0  0  0  0
    2.6378   17.1434  -40.2062 C   0  0  0  0  0  0  0  0  0  0  0  0
    3.9030   16.5500  -40.1006 C   0  0  0  0  0  0  0  0  0  0  0  0
    5.1925   17.5174  -39.5012 Cl  0  0  0  0  0  0  0  0  0  0  0  0
    4.0811   15.2149  -40.4487 C   0  0  0  0  0  0  0  0  0  0  0  0
    5.2859   14.5680  -40.4086 O   0  0  0  0  0  0  0  0  0  0  0  0
    5.8609   14.2688  -39.1890 C   0  0  0  0  0  0  0  0  0  0  0  0
    5.2502   14.3860  -37.9420 C   0  0  0  0  0  0  0  0  0  0  0  0
    5.9509   14.0467  -36.7834 C   0  0  0  0  0  0  0  0  0  0  0  0
    7.2571   13.5777  -36.8697 C   0  0  0  0  0  0  0  0  0  0  0  0
    7.8673   13.4485  -38.1113 C   0  0  0  0  0  0  0  0  0  0  0  0
    7.1684   13.7901  -39.2646 C   0  0  0  0  0  0  0  0  0  0  0  0
    2.9890   14.5105  -40.9559 C   0  0  0  0  0  0  0  0  0  0  0  0
    3.1394   13.2275  -41.3114 F   0  0  0  0  0  0  0  0  0  0  0  0
    0.7371   14.7525  -45.0291 H   0  0  0  0  0  0  0  0  0  0  0  0
    1.4350   15.7920  -43.7692 H   0  0  0  0  0  0  0  0  0  0  0  0
   -0.3322   15.6135  -43.8974 H   0  0  0  0  0  0  0  0  0  0  0  0
    1.6307   13.3865  -43.2047 H   0  0  0  0  0  0  0  0  0  0  0  0
   -0.1338   13.2186  -43.3357 H   0  0  0  0  0  0  0  0  0  0  0  0
   -0.3719   14.9115  -41.4893 H   0  0  0  0  0  0  0  0  0  0  0  0
    0.9362   12.3194  -41.1721 H   0  0  0  0  0  0  0  0  0  0  0  0
   -1.4401   12.3041  -41.7141 H   0  0  0  0  0  0  0  0  0  0  0  0
   -2.0114   10.6581  -39.9451 H   0  0  0  0  0  0  0  0  0  0  0  0
   -0.5942   11.1748  -39.0051 H   0  0  0  0  0  0  0  0  0  0  0  0
   -0.3793   10.4049  -40.5944 H   0  0  0  0  0  0  0  0  0  0  0  0
   -3.0296   12.9870  -40.0051 H   0  0  0  0  0  0  0  0  0  0  0  0
   -2.0419   14.3634  -40.4982 H   0  0  0  0  0  0  0  0  0  0  0  0
   -3.6051   13.3338  -38.0077 H   0  0  0  0  0  0  0  0  0  0  0  0
   -1.5379   14.2635  -36.0468 H   0  0  0  0  0  0  0  0  0  0  0  0
   -2.3900   12.7188  -35.7893 H   0  0  0  0  0  0  0  0  0  0  0  0
   -3.4632   14.5136  -34.4863 H   0  0  0  0  0  0  0  0  0  0  0  0
   -4.5703   13.9531  -35.7878 H   0  0  0  0  0  0  0  0  0  0  0  0
   -4.4863   16.3451  -35.6496 H   0  0  0  0  0  0  0  0  0  0  0  0
   -2.8440   16.3550  -35.9052 H   0  0  0  0  0  0  0  0  0  0  0  0
    0.5748   16.9119  -40.7625 H   0  0  0  0  0  0  0  0  0  0  0  0
    2.5047   18.1849  -39.9143 H   0  0  0  0  0  0  0  0  0  0  0  0
    4.2382   14.7537  -37.8450 H   0  0  0  0  0  0  0  0  0  0  0  0
    5.4879   14.1456  -35.8049 H   0  0  0  0  0  0  0  0  0  0  0  0
    7.8059   13.3108  -35.9705 H   0  0  0  0  0  0  0  0  0  0  0  0
    8.8882   13.0829  -38.1807 H   0  0  0  0  0  0  0  0  0  0  0  0
    7.6502   13.6895  -40.2341 H   0  0  0  0  0  0  0  0  0  0  0  0
    0.6350   13.2223  -39.8325 H   0  0  0  0  0  0  0  0  0  0  0  0
   -3.8645   15.8344  -37.1084 H   0  0  0  0  0  0  0  0  0  0  0  0
  1  2  1  0  0  0  0
  1 29  1  0  0  0  0
  1 30  1  0  0  0  0
  1 31  1  0  0  0  0
  2  3  1  0  0  0  0
  2 32  1  0  0  0  0
  2 33  1  0  0  0  0
  3  4  1  0  0  0  0
  3 14  1  0  0  0  0
  3 34  1  1  0  0  0
  4  5  1  0  0  0  0
  4 35  1  0  0  0  0
  4 56  1  0  0  0  0
  5  6  1  0  0  0  0
  5  7  1  0  0  0  0
  5 36  1  6  0  0  0
  6 37  1  0  0  0  0
  6 38  1  0  0  0  0
  6 39  1  0  0  0  0
  7  8  1  0  0  0  0
  7 40  1  0  0  0  0
  7 41  1  0  0  0  0
  8  9  2  0  0  0  0
  8 10  1  0  0  0  0
 10 11  1  0  0  0  0
 10 42  1  0  0  0  0
 11 12  1  0  0  0  0
 11 43  1  0  0  0  0
 11 44  1  0  0  0  0
 12 13  1  0  0  0  0
 12 45  1  0  0  0  0
 12 46  1  0  0  0  0
 13 47  1  0  0  0  0
 13 48  1  0  0  0  0
 13 57  1  0  0  0  0
 14 15  2  0  0  0  0
 14 27  1  0  0  0  0
 15 16  1  0  0  0  0
 15 49  1  0  0  0  0
 16 17  2  0  0  0  0
 16 50  1  0  0  0  0
 17 18  1  0  0  0  0
 17 19  1  0  0  0  0
 19 20  1  0  0  0  0
 19 27  2  0  0  0  0
 20 21  1  0  0  0  0
 21 22  2  0  0  0  0
 21 26  1  0  0  0  0
 22 23  1  0  0  0  0
 22 51  1  0  0  0  0
 23 24  2  0  0  0  0
 23 52  1  0  0  0  0
 24 25  1  0  0  0  0
 24 53  1  0  0  0  0
 25 26  2  0  0  0  0
 25 54  1  0  0  0  0
 26 55  1  0  0  0  0
 27 28  1  0  0  0  0
M  CHG  2   4   1  13   1
M  END
$$$$
