1NP
 OpenBabel04111917543D

 19 20  0  0  0  0  0  0  0  0999 V2000
   19.1330    9.4030   -2.2033 O   0  0  0  0  0  0  0  0  0  0  0  0
   19.1995    8.0356   -2.1233 C   0  0  0  0  0  0  0  0  0  0  0  0
   20.2957    7.3759   -2.7019 C   0  0  0  0  0  0  0  0  0  0  0  0
   21.3209    8.0786   -3.3575 C   0  0  0  0  0  0  0  0  0  0  0  0
   22.3997    7.4092   -3.9271 C   0  0  0  0  0  0  0  0  0  0  0  0
   18.1907    7.3268   -1.4757 C   0  0  0  0  0  0  0  0  0  0  0  0
   18.2672    5.9375   -1.3975 C   0  0  0  0  0  0  0  0  0  0  0  0
   19.3457    5.2589   -1.9692 C   0  0  0  0  0  0  0  0  0  0  0  0
   20.3685    5.9652   -2.6240 C   0  0  0  0  0  0  0  0  0  0  0  0
   21.4625    5.3023   -3.2052 C   0  0  0  0  0  0  0  0  0  0  0  0
   22.4706    6.0233   -3.8516 C   0  0  0  0  0  0  0  0  0  0  0  0
   18.3241    9.7072   -1.7597 H   0  0  0  0  0  0  0  0  0  0  0  0
   21.2735    9.1637   -3.4248 H   0  0  0  0  0  0  0  0  0  0  0  0
   23.1775    7.9768   -4.4291 H   0  0  0  0  0  0  0  0  0  0  0  0
   17.3456    7.8393   -1.0284 H   0  0  0  0  0  0  0  0  0  0  0  0
   17.4825    5.3775   -0.8944 H   0  0  0  0  0  0  0  0  0  0  0  0
   19.3837    4.1736   -1.8996 H   0  0  0  0  0  0  0  0  0  0  0  0
   21.5377    4.2183   -3.1576 H   0  0  0  0  0  0  0  0  0  0  0  0
   23.3124    5.4997   -4.2951 H   0  0  0  0  0  0  0  0  0  0  0  0
  1  2  1  0  0  0  0
  1 12  1  0  0  0  0
  2  3  2  0  0  0  0
  2  6  1  0  0  0  0
  3  4  1  0  0  0  0
  3  9  1  0  0  0  0
  4  5  2  0  0  0  0
  4 13  1  0  0  0  0
  5 11  1  0  0  0  0
  5 14  1  0  0  0  0
  6  7  2  0  0  0  0
  6 15  1  0  0  0  0
  7  8  1  0  0  0  0
  7 16  1  0  0  0  0
  8  9  2  0  0  0  0
  8 17  1  0  0  0  0
  9 10  1  0  0  0  0
 10 11  2  0  0  0  0
 10 18  1  0  0  0  0
 11 19  1  0  0  0  0
M  END
$$$$
