1O8
 OpenBabel04111919453D

 43 44  0  0  0  0  0  0  0  0999 V2000
   66.0184   46.3400   29.9109 C   0  0  0  0  0  0  0  0  0  0  0  0
   67.4216   46.2478   30.4684 C   0  0  0  0  0  0  0  0  0  0  0  0
   67.3917   45.9607   31.9559 C   0  0  0  0  0  0  0  0  0  0  0  0
   66.4255   46.8424   32.7059 C   0  0  0  0  0  0  0  0  0  0  0  0
   66.5913   46.9951   34.0889 C   0  0  0  0  0  0  0  0  0  0  0  0
   65.7053   47.7818   34.8311 C   0  0  0  0  0  0  0  0  0  0  0  0
   64.6448   48.4217   34.2173 C   0  0  0  0  0  0  0  0  0  0  0  0
   64.4729   48.2716   32.8471 C   0  0  0  0  0  0  0  0  0  0  0  0
   65.3488   47.4833   32.0700 C   0  0  0  0  0  0  0  0  0  0  0  0
   65.1444   47.3370   30.6103 C   0  0  0  0  0  0  0  0  0  0  0  0
   64.2285   48.0685   29.9633 C   0  0  0  0  0  0  0  0  0  0  0  0
   63.9255   47.9702   28.5444 C   0  0  0  0  0  0  0  0  0  0  0  0
   65.0395   48.3181   27.5832 C   0  0  0  0  0  0  0  0  0  0  0  0
   62.7355   47.5834   28.0969 C   0  0  0  0  0  0  0  0  0  0  0  0
   61.5739   47.2417   28.9128 C   0  0  0  0  0  0  0  0  0  0  0  0
   60.3961   46.8962   28.4308 C   0  0  0  0  0  0  0  0  0  0  0  0
   59.1889   46.5991   29.2290 C   0  0  0  0  0  0  0  0  0  0  0  0
   59.4324   46.0155   30.6180 C   0  0  0  0  0  0  0  0  0  0  0  0
   57.9716   46.8155   28.7596 C   0  0  0  0  0  0  0  0  0  0  0  0
   56.6669   46.5564   29.5664 C   0  0  0  0  0  0  0  0  0  0  0  0
   55.7667   47.4318   29.4034 O   0  0  0  0  0  0  0  0  0  0  0  0
   56.6487   45.4890   30.2454 O   0  0  0  0  0  0  0  0  0  0  0  0
   65.5373   45.3653   29.8816 H   0  0  0  0  0  0  0  0  0  0  0  0
   66.1399   46.5947   28.8801 H   0  0  0  0  0  0  0  0  0  0  0  0
   67.9500   47.1929   30.2856 H   0  0  0  0  0  0  0  0  0  0  0  0
   67.9706   45.4535   29.9430 H   0  0  0  0  0  0  0  0  0  0  0  0
   68.4052   46.1088   32.3555 H   0  0  0  0  0  0  0  0  0  0  0  0
   67.1223   44.9072   32.1154 H   0  0  0  0  0  0  0  0  0  0  0  0
   67.4179   46.5076   34.5873 H   0  0  0  0  0  0  0  0  0  0  0  0
   65.8497   47.8875   35.9033 H   0  0  0  0  0  0  0  0  0  0  0  0
   63.9475   49.0329   34.7868 H   0  0  0  0  0  0  0  0  0  0  0  0
   63.6282   48.7823   32.3926 H   0  0  0  0  0  0  0  0  0  0  0  0
   63.5645   48.7510   30.5130 H   0  0  0  0  0  0  0  0  0  0  0  0
   64.7392   48.1643   26.5471 H   0  0  0  0  0  0  0  0  0  0  0  0
   65.9418   47.7198   27.6699 H   0  0  0  0  0  0  0  0  0  0  0  0
   65.3707   49.3464   27.7108 H   0  0  0  0  0  0  0  0  0  0  0  0
   62.5729   47.4980   27.0121 H   0  0  0  0  0  0  0  0  0  0  0  0
   61.7105   47.3221   29.9949 H   0  0  0  0  0  0  0  0  0  0  0  0
   60.2512   46.8422   27.3426 H   0  0  0  0  0  0  0  0  0  0  0  0
   58.5118   45.8451   31.1685 H   0  0  0  0  0  0  0  0  0  0  0  0
   60.0175   46.6865   31.2517 H   0  0  0  0  0  0  0  0  0  0  0  0
   59.9436   45.0478   30.5575 H   0  0  0  0  0  0  0  0  0  0  0  0
   57.8212   47.2560   27.7643 H   0  0  0  0  0  0  0  0  0  0  0  0
  1  2  1  0  0  0  0
  1 10  1  0  0  0  0
  1 23  1  0  0  0  0
  1 24  1  0  0  0  0
  2  3  1  0  0  0  0
  2 25  1  0  0  0  0
  2 26  1  0  0  0  0
  3  4  1  0  0  0  0
  3 27  1  0  0  0  0
  3 28  1  0  0  0  0
  4  5  2  0  0  0  0
  4  9  1  0  0  0  0
  5  6  1  0  0  0  0
  5 29  1  0  0  0  0
  6  7  2  0  0  0  0
  6 30  1  0  0  0  0
  7  8  1  0  0  0  0
  7 31  1  0  0  0  0
  8  9  2  0  0  0  0
  8 32  1  0  0  0  0
  9 10  1  0  0  0  0
 10 11  2  0  0  0  0
 11 12  1  0  0  0  0
 11 33  1  0  0  0  0
 12 13  1  0  0  0  0
 12 14  2  0  0  0  0
 13 34  1  0  0  0  0
 13 35  1  0  0  0  0
 13 36  1  0  0  0  0
 14 15  1  0  0  0  0
 14 37  1  0  0  0  0
 15 16  2  0  0  0  0
 15 38  1  0  0  0  0
 16 17  1  0  0  0  0
 16 39  1  0  0  0  0
 17 18  1  0  0  0  0
 17 19  2  0  0  0  0
 18 40  1  0  0  0  0
 18 41  1  0  0  0  0
 18 42  1  0  0  0  0
 19 20  1  0  0  0  0
 19 43  1  0  0  0  0
 20 21  2  0  0  0  0
 20 22  1  0  0  0  0
M  END
$$$$
