1OS
 OpenBabel04111919463D

 27 27  0  0  1  0  0  0  0  0999 V2000
   12.5728   12.7522    9.9503 O   0  0  0  0  0  0  0  0  0  0  0  0
   13.0526   11.8451   11.0807 P   0  0  0  0  0  0  0  0  0  0  0  0
   12.2729   10.5309   11.1742 O   0  0  0  0  0  0  0  0  0  0  0  0
   14.4999   11.8838   11.5164 O   0  0  0  0  0  0  0  0  0  0  0  0
   12.0865   12.7937   12.5299 C   0  0  1  0  0  0  0  0  0  0  0  0
   10.6449   12.4312   12.2249 N   0  3  0  0  0  0  0  0  0  0  0  0
   12.3885   12.4879   13.9722 C   0  0  0  0  0  0  0  0  0  0  0  0
   13.1639   13.3066   14.7898 C   0  0  0  0  0  0  0  0  0  0  0  0
   13.3114   12.9983   16.1646 C   0  0  0  0  0  0  0  0  0  0  0  0
   12.6585   11.8895   16.7078 C   0  0  0  0  0  0  0  0  0  0  0  0
   12.8237   11.4626   18.1027 C   0  0  0  0  0  0  0  0  0  0  0  0
   11.7658   11.2969   18.8667 N   0  0  0  0  0  0  0  0  0  0  0  0
   14.0032   11.1040   18.5393 N   0  0  0  0  0  0  0  0  0  0  0  0
   11.8845   11.0899   15.8940 C   0  0  0  0  0  0  0  0  0  0  0  0
   11.7817   11.3503   14.5513 C   0  0  0  0  0  0  0  0  0  0  0  0
   12.1953   13.8554   12.3008 H   0  0  0  0  0  0  0  0  0  0  0  0
    9.9687   12.8792   12.8104 H   0  0  0  0  0  0  0  0  0  0  0  0
   10.5944   12.6043   11.2057 H   0  0  0  0  0  0  0  0  0  0  0  0
   13.6593   14.1859   14.3722 H   0  0  0  0  0  0  0  0  0  0  0  0
   13.9308   13.6544   16.7666 H   0  0  0  0  0  0  0  0  0  0  0  0
   11.8255   10.9192   19.7963 H   0  0  0  0  0  0  0  0  0  0  0  0
   14.8002   11.1686   17.9133 H   0  0  0  0  0  0  0  0  0  0  0  0
   14.1364   10.6902   19.4468 H   0  0  0  0  0  0  0  0  0  0  0  0
   11.3843   10.1794   16.2846 H   0  0  0  0  0  0  0  0  0  0  0  0
   11.2102   10.6533   13.9393 H   0  0  0  0  0  0  0  0  0  0  0  0
   10.6763   11.3955   12.2114 H   0  0  0  0  0  0  0  0  0  0  0  0
   10.8536   11.5355   18.4948 H   0  0  0  0  0  0  0  0  0  0  0  0
  1  2  2  0  0  0  0
  2  3  1  0  0  0  0
  2  4  1  0  0  0  0
  2  5  1  0  0  0  0
  5  6  1  0  0  0  0
  5  7  1  0  0  0  0
  5 16  1  6  0  0  0
  6 17  1  0  0  0  0
  6 18  1  0  0  0  0
  6 26  1  0  0  0  0
  7  8  2  0  0  0  0
  7 15  1  0  0  0  0
  8  9  1  0  0  0  0
  8 19  1  0  0  0  0
  9 10  2  0  0  0  0
  9 20  1  0  0  0  0
 10 11  1  0  0  0  0
 10 14  1  0  0  0  0
 11 12  2  0  0  0  0
 11 13  1  0  0  0  0
 12 21  1  0  0  0  0
 12 27  1  0  0  0  0
 13 22  1  0  0  0  0
 13 23  1  0  0  0  0
 14 15  2  0  0  0  0
 14 24  1  0  0  0  0
 15 25  1  0  0  0  0
M  CHG  1   6   1
M  END
$$$$
