1OT
 OpenBabel04111919453D

 28 29  0  0  1  0  0  0  0  0999 V2000
   87.9506   76.0575   29.9163 O   0  0  0  0  0  0  0  0  0  0  0  0
   87.5216   74.6127   30.0795 P   0  0  0  0  0  0  0  0  0  0  0  0
   87.1270   73.9562   28.7643 O   0  0  0  0  0  0  0  0  0  0  0  0
   88.1801   73.7691   31.1538 O   0  0  0  0  0  0  0  0  0  0  0  0
   85.7546   75.0158   30.8339 C   0  0  1  0  0  0  0  0  0  0  0  0
   84.9539   75.8809   29.8994 N   0  3  0  0  0  0  0  0  0  0  0  0
   84.9051   73.8344   31.1466 C   0  0  0  0  0  0  0  0  0  0  0  0
   83.8482   74.0408   32.0222 C   0  0  0  0  0  0  0  0  0  0  0  0
   83.0107   72.9974   32.2847 C   0  0  0  0  0  0  0  0  0  0  0  0
   83.2002   71.7484   31.6664 C   0  0  0  0  0  0  0  0  0  0  0  0
   84.2365   71.5467   30.7650 C   0  0  0  0  0  0  0  0  0  0  0  0
   85.0848   72.6047   30.5026 C   0  0  0  0  0  0  0  0  0  0  0  0
   82.3066   70.7304   32.0056 N   0  3  0  0  0  0  0  0  0  0  0  0
   82.3507   69.4512   31.4880 N   0  0  0  0  0  0  0  0  0  0  0  0
   81.3268   68.8666   32.0859 C   0  0  0  0  0  0  0  0  0  0  0  0
   80.6184   69.7139   32.9552 C   0  0  0  0  0  0  0  0  0  0  0  0
   81.2751   70.9080   32.8843 C   0  0  0  0  0  0  0  0  0  0  0  0
   85.9244   75.6044   31.7477 H   0  0  0  0  0  0  0  0  0  0  0  0
   84.0452   76.0956   30.2840 H   0  0  0  0  0  0  0  0  0  0  0  0
   85.5726   76.6734   29.6920 H   0  0  0  0  0  0  0  0  0  0  0  0
   83.6823   74.9982   32.5024 H   0  0  0  0  0  0  0  0  0  0  0  0
   82.2210   73.1975   32.9925 H   0  0  0  0  0  0  0  0  0  0  0  0
   84.4056   70.5953   30.2817 H   0  0  0  0  0  0  0  0  0  0  0  0
   85.9049   72.4565   29.8008 H   0  0  0  0  0  0  0  0  0  0  0  0
   81.1116   67.8238   31.8832 H   0  0  0  0  0  0  0  0  0  0  0  0
   79.7596   69.4805   33.5432 H   0  0  0  0  0  0  0  0  0  0  0  0
   81.0533   71.8258   33.4067 H   0  0  0  0  0  0  0  0  0  0  0  0
   84.9253   75.3030   29.0476 H   0  0  0  0  0  0  0  0  0  0  0  0
  1  2  2  0  0  0  0
  2  3  1  0  0  0  0
  2  4  1  0  0  0  0
  2  5  1  0  0  0  0
  5  6  1  0  0  0  0
  5  7  1  0  0  0  0
  5 18  1  1  0  0  0
  6 19  1  0  0  0  0
  6 20  1  0  0  0  0
  6 28  1  0  0  0  0
  7  8  2  0  0  0  0
  7 12  1  0  0  0  0
  8  9  1  0  0  0  0
  8 21  1  0  0  0  0
  9 10  2  0  0  0  0
  9 22  1  0  0  0  0
 10 11  1  0  0  0  0
 10 13  1  0  0  0  0
 11 12  2  0  0  0  0
 11 23  1  0  0  0  0
 12 24  1  0  0  0  0
 13 14  1  0  0  0  0
 13 17  2  0  0  0  0
 14 15  1  0  0  0  0
 15 16  2  0  0  0  0
 15 25  1  0  0  0  0
 16 17  1  0  0  0  0
 16 26  1  0  0  0  0
 17 27  1  0  0  0  0
M  CHG  2   6   1  13   1
M  END
$$$$
