1Q4
 OpenBabel04111919463D

 34 36  0  0  0  0  0  0  0  0999 V2000
   16.7951    3.4305    1.3413 C   0  0  0  0  0  0  0  0  0  0  0  0
   17.3128    2.2000    1.2762 C   0  0  0  0  0  0  0  0  0  0  0  0
   16.6580    1.1744    0.6399 N   0  3  0  0  0  0  0  0  0  0  0  0
   15.4249    1.3230    0.0167 C   0  0  0  0  0  0  0  0  0  0  0  0
   14.9084    0.3587   -0.5404 O   0  0  0  0  0  0  0  0  0  0  0  0
   14.8055    2.6847    0.0783 C   0  0  0  0  0  0  0  0  0  0  0  0
   15.4938    3.6925    0.7302 C   0  0  0  0  0  0  0  0  0  0  0  0
   14.8489    4.9246    0.7545 C   0  0  0  0  0  0  0  0  0  0  0  0
   13.6531    5.1000    0.1641 N   0  0  0  0  0  0  0  0  0  0  0  0
   13.0856    4.0524   -0.4409 C   0  0  0  0  0  0  0  0  0  0  0  0
   13.5983    2.8279   -0.5177 N   0  0  0  0  0  0  0  0  0  0  0  0
   15.4591    6.0432    1.3183 N   0  0  0  0  0  0  0  0  0  0  0  0
   14.8117    7.3486    1.3112 C   0  0  0  0  0  0  0  0  0  0  0  0
   13.9914    7.5583    2.5902 C   0  0  0  0  0  0  0  0  0  0  0  0
   13.5051    9.0039    2.7209 C   0  0  0  0  0  0  0  0  0  0  0  0
   14.6820    9.9708    2.6620 C   0  0  0  0  0  0  0  0  0  0  0  0
   15.3470    9.8279    1.2998 C   0  0  0  0  0  0  0  0  0  0  0  0
   15.9091    8.4167    1.1706 C   0  0  0  0  0  0  0  0  0  0  0  0
   17.3386    4.2138    1.8426 H   0  0  0  0  0  0  0  0  0  0  0  0
   18.2834    1.9570    1.7229 H   0  0  0  0  0  0  0  0  0  0  0  0
   17.0696    0.2515    0.5952 H   0  0  0  0  0  0  0  0  0  0  0  0
   12.1230    4.2187   -0.9045 H   0  0  0  0  0  0  0  0  0  0  0  0
   16.2697    5.9326    1.9107 H   0  0  0  0  0  0  0  0  0  0  0  0
   14.1492    7.4467    0.4424 H   0  0  0  0  0  0  0  0  0  0  0  0
   14.5978    7.3071    3.4693 H   0  0  0  0  0  0  0  0  0  0  0  0
   13.1283    6.8835    2.5960 H   0  0  0  0  0  0  0  0  0  0  0  0
   12.9540    9.1352    3.6566 H   0  0  0  0  0  0  0  0  0  0  0  0
   12.8141    9.2305    1.8988 H   0  0  0  0  0  0  0  0  0  0  0  0
   15.4043    9.7350    3.4556 H   0  0  0  0  0  0  0  0  0  0  0  0
   14.3479   11.0005    2.8239 H   0  0  0  0  0  0  0  0  0  0  0  0
   16.1425   10.5696    1.1807 H   0  0  0  0  0  0  0  0  0  0  0  0
   14.6092   10.0126    0.5081 H   0  0  0  0  0  0  0  0  0  0  0  0
   16.4166    8.3034    0.2060 H   0  0  0  0  0  0  0  0  0  0  0  0
   16.6686    8.2683    1.9501 H   0  0  0  0  0  0  0  0  0  0  0  0
  1  2  2  0  0  0  0
  1  7  1  0  0  0  0
  1 19  1  0  0  0  0
  2  3  1  0  0  0  0
  2 20  1  0  0  0  0
  3  4  1  0  0  0  0
  3 21  1  0  0  0  0
  4  5  2  0  0  0  0
  4  6  1  0  0  0  0
  6  7  2  0  0  0  0
  6 11  1  0  0  0  0
  7  8  1  0  0  0  0
  8  9  2  0  0  0  0
  8 12  1  0  0  0  0
  9 10  1  0  0  0  0
 10 11  2  0  0  0  0
 10 22  1  0  0  0  0
 12 13  1  0  0  0  0
 12 23  1  0  0  0  0
 13 14  1  0  0  0  0
 13 18  1  0  0  0  0
 13 24  1  0  0  0  0
 14 15  1  0  0  0  0
 14 25  1  0  0  0  0
 14 26  1  0  0  0  0
 15 16  1  0  0  0  0
 15 27  1  0  0  0  0
 15 28  1  0  0  0  0
 16 17  1  0  0  0  0
 16 29  1  0  0  0  0
 16 30  1  0  0  0  0
 17 18  1  0  0  0  0
 17 31  1  0  0  0  0
 17 32  1  0  0  0  0
 18 33  1  0  0  0  0
 18 34  1  0  0  0  0
M  CHG  1   3   1
M  END
$$$$
