1SN
 OpenBabel04111919563D

 57 58  0  0  1  0  0  0  0  0999 V2000
  210.2627   71.6004 -123.7755 C   0  0  0  0  0  0  0  0  0  0  0  0
  209.8994   70.2351 -123.1917 C   0  0  0  0  0  0  0  0  0  0  0  0
  208.5839   69.6258 -123.7533 C   0  0  0  0  0  0  0  0  0  0  0  0
  207.7552   68.9974 -122.6109 C   0  0  0  0  0  0  0  0  0  0  0  0
  207.7602   67.4837 -122.7080 C   0  0  0  0  0  0  0  0  0  0  0  0
  207.9496   70.6758 -124.4621 O   0  0  0  0  0  0  0  0  0  0  0  0
  206.5599   70.6455 -124.7222 C   0  0  1  0  0  0  0  0  0  0  0  0
  206.1587   72.1043 -124.9731 C   0  0  2  0  0  0  0  0  0  0  0  0
  206.6242   72.9439 -123.8247 N   0  0  0  0  0  0  0  0  0  0  0  0
  207.3078   74.1186 -124.0060 C   0  0  0  0  0  0  0  0  0  0  0  0
  207.7381   74.7748 -122.7271 C   0  0  0  0  0  0  0  0  0  0  0  0
  207.5356   74.6295 -125.1020 O   0  0  0  0  0  0  0  0  0  0  0  0
  206.1600   69.7369 -125.8811 C   0  0  0  0  0  0  0  0  0  0  0  0
  204.7018   69.8991 -126.1901 C   0  0  0  0  0  0  0  0  0  0  0  0
  203.9025   68.6726 -126.6535 C   0  0  0  0  0  0  0  0  0  0  0  0
  202.9957   68.8919 -127.4990 O   0  0  0  0  0  0  0  0  0  0  0  0
  204.2142   67.6049 -126.0504 O   0  0  0  0  0  0  0  0  0  0  0  0
  204.0210   71.0305 -125.8921 C   0  0  0  0  0  0  0  0  0  0  0  0
  204.6279   72.1669 -125.1254 C   0  0  2  0  0  0  0  0  0  0  0  0
  204.2487   73.4781 -125.6030 N   0  3  0  0  0  0  0  0  0  0  0  0
  204.1655   74.6058 -124.8435 C   0  0  0  0  0  0  0  0  0  0  0  0
  204.0302   73.7426 -126.9058 N   0  0  0  0  0  0  0  0  0  0  0  0
  203.8331   75.0490 -127.0124 N   0  0  0  0  0  0  0  0  0  0  0  0
  203.9218   75.5988 -125.7583 C   0  0  0  0  0  0  0  0  0  0  0  0
  203.6603   77.0372 -125.5365 C   0  0  1  0  0  0  0  0  0  0  0  0
  202.1681   77.2790 -125.2785 C   0  0  0  0  0  0  0  0  0  0  0  0
  201.2823   76.8522 -126.4408 C   0  0  0  0  0  0  0  0  0  0  0  0
  204.3808   77.5507 -124.4032 O   0  0  0  0  0  0  0  0  0  0  0  0
  211.1840   71.9841 -123.3303 H   0  0  0  0  0  0  0  0  0  0  0  0
  209.4785   72.3317 -123.5562 H   0  0  0  0  0  0  0  0  0  0  0  0
  210.3923   71.5483 -124.8604 H   0  0  0  0  0  0  0  0  0  0  0  0
  209.8366   70.3631 -122.1053 H   0  0  0  0  0  0  0  0  0  0  0  0
  210.7210   69.5305 -123.3595 H   0  0  0  0  0  0  0  0  0  0  0  0
  208.8579   68.8645 -124.4948 H   0  0  0  0  0  0  0  0  0  0  0  0
  206.7106   69.2943 -122.5887 H   0  0  0  0  0  0  0  0  0  0  0  0
  208.1279   69.3012 -121.6272 H   0  0  0  0  0  0  0  0  0  0  0  0
  207.1067   67.0624 -121.9389 H   0  0  0  0  0  0  0  0  0  0  0  0
  208.7697   67.0918 -122.5716 H   0  0  0  0  0  0  0  0  0  0  0  0
  207.3806   67.1619 -123.6840 H   0  0  0  0  0  0  0  0  0  0  0  0
  205.9986   70.3558 -123.8365 H   0  0  0  0  0  0  0  0  0  0  0  0
  206.6584   72.4714 -125.8780 H   0  0  0  0  0  0  0  0  0  0  0  0
  206.6401   72.5074 -122.9124 H   0  0  0  0  0  0  0  0  0  0  0  0
  208.2104   75.7348 -122.9559 H   0  0  0  0  0  0  0  0  0  0  0  0
  208.4611   74.1404 -122.2054 H   0  0  0  0  0  0  0  0  0  0  0  0
  206.8684   74.9546 -122.0906 H   0  0  0  0  0  0  0  0  0  0  0  0
  206.4116   68.7025 -125.6224 H   0  0  0  0  0  0  0  0  0  0  0  0
  206.7474   69.9747 -126.7761 H   0  0  0  0  0  0  0  0  0  0  0  0
  202.9618   71.0964 -126.1443 H   0  0  0  0  0  0  0  0  0  0  0  0
  204.1839   72.0987 -124.1177 H   0  0  0  0  0  0  0  0  0  0  0  0
  204.3320   74.6056 -123.7777 H   0  0  0  0  0  0  0  0  0  0  0  0
  203.9955   77.6085 -126.4080 H   0  0  0  0  0  0  0  0  0  0  0  0
  202.0095   78.3419 -125.0633 H   0  0  0  0  0  0  0  0  0  0  0  0
  201.8563   76.7413 -124.3723 H   0  0  0  0  0  0  0  0  0  0  0  0
  200.2356   77.0780 -126.2223 H   0  0  0  0  0  0  0  0  0  0  0  0
  201.3453   75.7748 -126.6252 H   0  0  0  0  0  0  0  0  0  0  0  0
  201.5695   77.3743 -127.3586 H   0  0  0  0  0  0  0  0  0  0  0  0
  204.1737   76.9646 -123.6576 H   0  0  0  0  0  0  0  0  0  0  0  0
  1  2  1  0  0  0  0
  1 29  1  0  0  0  0
  1 30  1  0  0  0  0
  1 31  1  0  0  0  0
  2  3  1  0  0  0  0
  2 32  1  0  0  0  0
  2 33  1  0  0  0  0
  3  4  1  0  0  0  0
  3  6  1  0  0  0  0
  3 34  1  0  0  0  0
  4  5  1  0  0  0  0
  4 35  1  0  0  0  0
  4 36  1  0  0  0  0
  5 37  1  0  0  0  0
  5 38  1  0  0  0  0
  5 39  1  0  0  0  0
  6  7  1  0  0  0  0
  7  8  1  0  0  0  0
  7 13  1  0  0  0  0
  7 40  1  1  0  0  0
  8  9  1  0  0  0  0
  8 19  1  0  0  0  0
  8 41  1  6  0  0  0
  9 10  1  0  0  0  0
  9 42  1  0  0  0  0
 10 11  1  0  0  0  0
 10 12  2  0  0  0  0
 11 43  1  0  0  0  0
 11 44  1  0  0  0  0
 11 45  1  0  0  0  0
 13 14  1  0  0  0  0
 13 46  1  0  0  0  0
 13 47  1  0  0  0  0
 14 15  1  0  0  0  0
 14 18  2  0  0  0  0
 15 16  2  0  0  0  0
 15 17  1  0  0  0  0
 18 19  1  0  0  0  0
 18 48  1  0  0  0  0
 19 20  1  0  0  0  0
 19 49  1  1  0  0  0
 20 21  2  0  0  0  0
 20 22  1  0  0  0  0
 21 24  1  0  0  0  0
 21 50  1  0  0  0  0
 22 23  1  0  0  0  0
 23 24  2  0  0  0  0
 24 25  1  0  0  0  0
 25 26  1  0  0  0  0
 25 28  1  0  0  0  0
 25 51  1  6  0  0  0
 26 27  1  0  0  0  0
 26 52  1  0  0  0  0
 26 53  1  0  0  0  0
 27 54  1  0  0  0  0
 27 55  1  0  0  0  0
 27 56  1  0  0  0  0
 28 57  1  0  0  0  0
M  CHG  1  20   1
M  END
$$$$
