1T7
 OpenBabel04111920333D

 61 65  0  0  1  0  0  0  0  0999 V2000
    8.8482   40.2645   22.8253 C   0  0  0  0  0  0  0  0  0  0  0  0
    8.7638   41.6679   22.8480 C   0  0  0  0  0  0  0  0  0  0  0  0
    9.9016   42.4579   22.6682 C   0  0  0  0  0  0  0  0  0  0  0  0
   11.1427   41.8670   22.4576 C   0  0  0  0  0  0  0  0  0  0  0  0
   11.2445   40.4800   22.3990 C   0  0  0  0  0  0  0  0  0  0  0  0
   10.1047   39.6715   22.5566 C   0  0  0  0  0  0  0  0  0  0  0  0
    8.1742   35.6274   28.0435 C   0  0  0  0  0  0  0  0  0  0  0  0
    8.6640   35.3647   26.7579 C   0  0  0  0  0  0  0  0  0  0  0  0
    8.0970   35.9368   25.6427 N   0  0  0  0  0  0  0  0  0  0  0  0
    6.8881   36.7392   25.7533 C   0  0  1  0  0  0  0  0  0  0  0  0
    6.9504   37.5795   27.0192 C   0  0  0  0  0  0  0  0  0  0  0  0
    7.1048   36.6903   28.2526 C   0  0  2  0  0  0  0  0  0  0  0  0
    9.5965   33.8621   28.9800 C   0  0  0  0  0  0  0  0  0  0  0  0
   10.1079   33.6490   27.6924 C   0  0  0  0  0  0  0  0  0  0  0  0
    9.6675   34.4111   26.6065 C   0  0  0  0  0  0  0  0  0  0  0  0
    8.6456   34.8820   29.1348 C   0  0  0  0  0  0  0  0  0  0  0  0
   10.0274   33.0507   30.1369 C   0  0  0  0  0  0  0  0  0  0  0  0
   10.6115   31.8843   29.9527 N   0  0  0  0  0  0  0  0  0  0  0  0
    9.7976   33.4782   31.3648 N   0  0  0  0  0  0  0  0  0  0  0  0
    7.3643   37.6620   29.4019 C   0  0  0  0  0  0  0  0  0  0  0  0
    6.7354   37.6692   24.5734 C   0  0  0  0  0  0  0  0  0  0  0  0
    7.7862   38.5082   24.2110 C   0  0  0  0  0  0  0  0  0  0  0  0
    7.6743   39.4427   23.1730 C   0  0  0  0  0  0  0  0  0  0  0  0
    6.4386   39.5263   22.5118 C   0  0  0  0  0  0  0  0  0  0  0  0
    5.3791   38.6828   22.8265 C   0  0  0  0  0  0  0  0  0  0  0  0
    5.5141   37.7691   23.8800 C   0  0  0  0  0  0  0  0  0  0  0  0
    8.6641   38.1242   29.6669 C   0  0  0  0  0  0  0  0  0  0  0  0
    8.8715   39.2095   30.5123 C   0  0  0  0  0  0  0  0  0  0  0  0
    7.7820   39.8442   31.1016 C   0  0  0  0  0  0  0  0  0  0  0  0
    6.4891   39.3694   30.8814 C   0  0  0  0  0  0  0  0  0  0  0  0
    6.2784   38.2737   30.0454 C   0  0  0  0  0  0  0  0  0  0  0  0
    4.1290   38.8571   22.2322 N   0  0  0  0  0  0  0  0  0  0  0  0
   10.2653   38.1852   22.4306 C   0  0  0  0  0  0  0  0  0  0  0  0
   11.1004   37.6340   23.2245 O   0  0  0  0  0  0  0  0  0  0  0  0
    9.5683   37.5783   21.5477 O   0  0  0  0  0  0  0  0  0  0  0  0
    7.8089   42.1504   23.0456 H   0  0  0  0  0  0  0  0  0  0  0  0
    9.8196   43.5441   22.7068 H   0  0  0  0  0  0  0  0  0  0  0  0
   12.0327   42.4736   22.3228 H   0  0  0  0  0  0  0  0  0  0  0  0
   12.2037   40.0005   22.2300 H   0  0  0  0  0  0  0  0  0  0  0  0
    8.5708   35.9081   24.7388 H   0  0  0  0  0  0  0  0  0  0  0  0
    6.0344   36.0560   25.7990 H   0  0  0  0  0  0  0  0  0  0  0  0
    6.0557   38.2130   27.1089 H   0  0  0  0  0  0  0  0  0  0  0  0
    7.8042   38.2713   26.9625 H   0  0  0  0  0  0  0  0  0  0  0  0
    6.1664   36.1480   28.4370 H   0  0  0  0  0  0  0  0  0  0  0  0
   10.8501   32.8857   27.4811 H   0  0  0  0  0  0  0  0  0  0  0  0
   10.0928   34.2380   25.6175 H   0  0  0  0  0  0  0  0  0  0  0  0
    8.2258   35.1299   30.1049 H   0  0  0  0  0  0  0  0  0  0  0  0
   10.9451   31.3137   30.7181 H   0  0  0  0  0  0  0  0  0  0  0  0
    9.3407   34.3725   31.5202 H   0  0  0  0  0  0  0  0  0  0  0  0
   10.0739   32.9741   32.1878 H   0  0  0  0  0  0  0  0  0  0  0  0
    8.7372   38.4312   24.7466 H   0  0  0  0  0  0  0  0  0  0  0  0
    6.3391   40.2515   21.6962 H   0  0  0  0  0  0  0  0  0  0  0  0
    4.6932   37.1184   24.1780 H   0  0  0  0  0  0  0  0  0  0  0  0
    9.5213   37.6864   29.1580 H   0  0  0  0  0  0  0  0  0  0  0  0
    9.8790   39.5850   30.6664 H   0  0  0  0  0  0  0  0  0  0  0  0
    7.9409   40.7231   31.7202 H   0  0  0  0  0  0  0  0  0  0  0  0
    5.6410   39.8793   31.3307 H   0  0  0  0  0  0  0  0  0  0  0  0
    5.2605   37.9457   29.8435 H   0  0  0  0  0  0  0  0  0  0  0  0
    4.0817   39.4049   21.3761 H   0  0  0  0  0  0  0  0  0  0  0  0
    3.4215   38.1430   22.3616 H   0  0  0  0  0  0  0  0  0  0  0  0
   10.7817   31.5290   29.0191 H   0  0  0  0  0  0  0  0  0  0  0  0
  1  2  2  0  0  0  0
  1  6  1  0  0  0  0
  1 23  1  0  0  0  0
  2  3  1  0  0  0  0
  2 36  1  0  0  0  0
  3  4  2  0  0  0  0
  3 37  1  0  0  0  0
  4  5  1  0  0  0  0
  4 38  1  0  0  0  0
  5  6  2  0  0  0  0
  5 39  1  0  0  0  0
  6 33  1  0  0  0  0
  7  8  2  0  0  0  0
  7 12  1  0  0  0  0
  7 16  1  0  0  0  0
  8  9  1  0  0  0  0
  8 15  1  0  0  0  0
  9 10  1  0  0  0  0
  9 40  1  0  0  0  0
 10 11  1  0  0  0  0
 10 21  1  0  0  0  0
 10 41  1  1  0  0  0
 11 12  1  0  0  0  0
 11 42  1  0  0  0  0
 11 43  1  0  0  0  0
 12 20  1  0  0  0  0
 12 44  1  1  0  0  0
 13 14  1  0  0  0  0
 13 16  2  0  0  0  0
 13 17  1  0  0  0  0
 14 15  2  0  0  0  0
 14 45  1  0  0  0  0
 15 46  1  0  0  0  0
 16 47  1  0  0  0  0
 17 18  2  0  0  0  0
 17 19  1  0  0  0  0
 18 48  1  0  0  0  0
 18 61  1  0  0  0  0
 19 49  1  0  0  0  0
 19 50  1  0  0  0  0
 20 27  2  0  0  0  0
 20 31  1  0  0  0  0
 21 22  2  0  0  0  0
 21 26  1  0  0  0  0
 22 23  1  0  0  0  0
 22 51  1  0  0  0  0
 23 24  2  0  0  0  0
 24 25  1  0  0  0  0
 24 52  1  0  0  0  0
 25 26  2  0  0  0  0
 25 32  1  0  0  0  0
 26 53  1  0  0  0  0
 27 28  1  0  0  0  0
 27 54  1  0  0  0  0
 28 29  2  0  0  0  0
 28 55  1  0  0  0  0
 29 30  1  0  0  0  0
 29 56  1  0  0  0  0
 30 31  2  0  0  0  0
 30 57  1  0  0  0  0
 31 58  1  0  0  0  0
 32 59  1  0  0  0  0
 32 60  1  0  0  0  0
 33 34  2  0  0  0  0
 33 35  1  0  0  0  0
M  END
$$$$
