1T8
 OpenBabel04111918203D

107110  0  0  1  0  0  0  0  0999 V2000
    7.8902   23.4932    2.7922 C   0  0  0  0  0  0  0  0  0  0  0  0
    9.1403   23.0275    3.1383 C   0  0  0  0  0  0  0  0  0  0  0  0
   10.2617   23.8085    2.8440 C   0  0  0  0  0  0  0  0  0  0  0  0
   11.6056   23.3698    3.3306 C   0  0  0  0  0  0  0  0  0  0  0  0
   10.1352   25.0423    2.2015 C   0  0  0  0  0  0  0  0  0  0  0  0
    8.8832   25.5274    1.8995 C   0  0  0  0  0  0  0  0  0  0  0  0
    7.7585   24.7466    2.1797 C   0  0  0  0  0  0  0  0  0  0  0  0
    6.4196   25.2720    1.7776 C   0  0  0  0  0  0  0  0  0  0  0  0
    5.3284   24.8972    2.7331 C   0  0  0  0  0  0  0  0  0  0  0  0
    5.0981   25.5469    3.8861 C   0  0  0  0  0  0  0  0  0  0  0  0
    6.0105   26.5862    4.4542 C   0  0  0  0  0  0  0  0  0  0  0  0
    6.9075   25.9371    5.3771 N   0  0  0  0  0  0  0  0  0  0  0  0
    8.1338   26.5151    5.6158 C   0  0  0  0  0  0  0  0  0  0  0  0
    8.4530   27.6062    5.1452 O   0  0  0  0  0  0  0  0  0  0  0  0
    9.1100   25.6872    6.4647 C   0  0  2  0  0  0  0  0  0  0  0  0
    9.3876   26.2931    7.8570 C   0  0  0  0  0  0  0  0  0  0  0  0
   10.6805   25.7363    8.4603 C   0  0  0  0  0  0  0  0  0  0  0  0
    9.4456   27.8243    7.8822 C   0  0  0  0  0  0  0  0  0  0  0  0
   10.3144   25.5468    5.6610 N   0  0  0  0  0  0  0  0  0  0  0  0
   10.9349   24.3190    5.5583 C   0  0  0  0  0  0  0  0  0  0  0  0
   10.5275   23.3268    6.2026 O   0  0  0  0  0  0  0  0  0  0  0  0
   12.0811   24.1989    4.5368 C   0  0  2  0  0  0  0  0  0  0  0  0
   12.5738   25.4783    4.1285 O   0  0  0  0  0  0  0  0  0  0  0  0
   13.2433   23.4376    5.1641 C   0  0  0  0  0  0  0  0  0  0  0  0
   13.7293   24.1079    6.4451 C   0  0  0  0  0  0  0  0  0  0  0  0
   15.1790   23.7836    6.7195 C   0  0  0  0  0  0  0  0  0  0  0  0
   15.2855   22.4092    7.1932 N   0  0  0  0  0  0  0  0  0  0  0  0
   15.9080   21.6342    6.2201 N   0  0  0  0  0  0  0  0  0  0  0  0
   15.2480   20.5264    5.7203 C   0  0  0  0  0  0  0  0  0  0  0  0
   14.1010   20.1994    6.0123 O   0  0  0  0  0  0  0  0  0  0  0  0
   16.1713   19.7024    4.8247 C   0  0  2  0  0  0  0  0  0  0  0  0
   15.4421   19.0464    3.6375 C   0  0  0  0  0  0  0  0  0  0  0  0
   14.5762   17.8816    4.1243 C   0  0  0  0  0  0  0  0  0  0  0  0
   16.5111   18.5235    2.6627 C   0  0  0  0  0  0  0  0  0  0  0  0
   14.5670   20.0736    2.8963 C   0  0  0  0  0  0  0  0  0  0  0  0
   16.8448   18.7203    5.6639 N   0  0  0  0  0  0  0  0  0  0  0  0
   18.1997   18.7172    5.7309 C   0  0  0  0  0  0  0  0  0  0  0  0
   18.9136   19.4802    5.0777 O   0  0  0  0  0  0  0  0  0  0  0  0
   18.6725   17.8469    6.6660 O   0  0  0  0  0  0  0  0  0  0  0  0
   20.0079   18.2118    7.0388 C   0  0  0  0  0  0  0  0  0  0  0  0
   16.0182   22.3880    8.4421 C   0  0  0  0  0  0  0  0  0  0  0  0
   16.2333   21.0074    8.9667 C   0  0  0  0  0  0  0  0  0  0  0  0
   17.5231   20.5152    9.0208 C   0  0  0  0  0  0  0  0  0  0  0  0
   17.7485   19.2760    9.5789 C   0  0  0  0  0  0  0  0  0  0  0  0
   15.1536   20.2539    9.4109 C   0  0  0  0  0  0  0  0  0  0  0  0
   15.3744   18.9936    9.9220 C   0  0  0  0  0  0  0  0  0  0  0  0
   16.6747   18.4773   10.0274 C   0  0  0  0  0  0  0  0  0  0  0  0
   15.8935   16.3914   11.1387 C   0  0  0  0  0  0  0  0  0  0  0  0
   16.9244   17.1552   10.6005 C   0  0  0  0  0  0  0  0  0  0  0  0
   18.2230   16.6321   10.6642 C   0  0  0  0  0  0  0  0  0  0  0  0
   18.4175   15.4286   11.2662 C   0  0  0  0  0  0  0  0  0  0  0  0
   17.4464   14.6965   11.8541 N   0  0  0  0  0  0  0  0  0  0  0  0
   16.1986   15.1910   11.7648 C   0  0  0  0  0  0  0  0  0  0  0  0
    7.0198   22.8884    3.0319 H   0  0  0  0  0  0  0  0  0  0  0  0
    9.2324   22.0734    3.6553 H   0  0  0  0  0  0  0  0  0  0  0  0
   12.3095   23.4581    2.4965 H   0  0  0  0  0  0  0  0  0  0  0  0
   11.5412   22.3052    3.5924 H   0  0  0  0  0  0  0  0  0  0  0  0
   11.0066   25.6404    1.9550 H   0  0  0  0  0  0  0  0  0  0  0  0
    8.7861   26.5147    1.4562 H   0  0  0  0  0  0  0  0  0  0  0  0
    6.1851   24.9143    0.7699 H   0  0  0  0  0  0  0  0  0  0  0  0
    6.4690   26.3659    1.7030 H   0  0  0  0  0  0  0  0  0  0  0  0
    4.7390   24.0245    2.4683 H   0  0  0  0  0  0  0  0  0  0  0  0
    4.2227   25.2850    4.4721 H   0  0  0  0  0  0  0  0  0  0  0  0
    5.4538   27.3519    4.9959 H   0  0  0  0  0  0  0  0  0  0  0  0
    6.6004   27.0967    3.6860 H   0  0  0  0  0  0  0  0  0  0  0  0
    6.7301   24.9837    5.6695 H   0  0  0  0  0  0  0  0  0  0  0  0
    8.6801   24.6889    6.6111 H   0  0  0  0  0  0  0  0  0  0  0  0
    8.5512   25.9962    8.5047 H   0  0  0  0  0  0  0  0  0  0  0  0
   10.8505   26.1269    9.4678 H   0  0  0  0  0  0  0  0  0  0  0  0
   11.5501   26.0113    7.8556 H   0  0  0  0  0  0  0  0  0  0  0  0
   10.6405   24.6428    8.5269 H   0  0  0  0  0  0  0  0  0  0  0  0
    8.5098   28.2671    7.5322 H   0  0  0  0  0  0  0  0  0  0  0  0
   10.2633   28.1953    7.2532 H   0  0  0  0  0  0  0  0  0  0  0  0
    9.6045   28.1926    8.9001 H   0  0  0  0  0  0  0  0  0  0  0  0
   10.7198   26.3773    5.2641 H   0  0  0  0  0  0  0  0  0  0  0  0
   11.8185   25.9538    3.7477 H   0  0  0  0  0  0  0  0  0  0  0  0
   14.0572   23.3952    4.4285 H   0  0  0  0  0  0  0  0  0  0  0  0
   12.9491   22.4049    5.3819 H   0  0  0  0  0  0  0  0  0  0  0  0
   13.0969   23.7967    7.2885 H   0  0  0  0  0  0  0  0  0  0  0  0
   13.6496   25.1955    6.3722 H   0  0  0  0  0  0  0  0  0  0  0  0
   15.5661   24.4835    7.4646 H   0  0  0  0  0  0  0  0  0  0  0  0
   15.7781   23.9368    5.8125 H   0  0  0  0  0  0  0  0  0  0  0  0
   16.8889   21.7917    6.0035 H   0  0  0  0  0  0  0  0  0  0  0  0
   16.9065   20.4095    4.4076 H   0  0  0  0  0  0  0  0  0  0  0  0
   14.0694   17.3946    3.2871 H   0  0  0  0  0  0  0  0  0  0  0  0
   13.8072   18.2141    4.8255 H   0  0  0  0  0  0  0  0  0  0  0  0
   15.1776   17.1223    4.6346 H   0  0  0  0  0  0  0  0  0  0  0  0
   17.1447   19.3400    2.2933 H   0  0  0  0  0  0  0  0  0  0  0  0
   16.0473   18.0375    1.8005 H   0  0  0  0  0  0  0  0  0  0  0  0
   17.1674   17.7922    3.1468 H   0  0  0  0  0  0  0  0  0  0  0  0
   13.7820   20.4856    3.5378 H   0  0  0  0  0  0  0  0  0  0  0  0
   14.0645   19.6054    2.0443 H   0  0  0  0  0  0  0  0  0  0  0  0
   15.1624   20.9154    2.5235 H   0  0  0  0  0  0  0  0  0  0  0  0
   16.3160   18.1180    6.2687 H   0  0  0  0  0  0  0  0  0  0  0  0
   20.4195   17.4448    7.6946 H   0  0  0  0  0  0  0  0  0  0  0  0
   19.9544   19.1535    7.5898 H   0  0  0  0  0  0  0  0  0  0  0  0
   20.6700   18.3349    6.1764 H   0  0  0  0  0  0  0  0  0  0  0  0
   15.4780   22.9441    9.2215 H   0  0  0  0  0  0  0  0  0  0  0  0
   17.0023   22.8649    8.3063 H   0  0  0  0  0  0  0  0  0  0  0  0
   18.3732   21.0823    8.6532 H   0  0  0  0  0  0  0  0  0  0  0  0
   18.7773   18.9723    9.6731 H   0  0  0  0  0  0  0  0  0  0  0  0
   14.1342   20.6398    9.3456 H   0  0  0  0  0  0  0  0  0  0  0  0
   14.5011   18.4510   10.2561 H   0  0  0  0  0  0  0  0  0  0  0  0
   14.8601   16.6831   11.0992 H   0  0  0  0  0  0  0  0  0  0  0  0
   19.0896   17.1253   10.2523 H   0  0  0  0  0  0  0  0  0  0  0  0
   19.4278   15.0071   11.3440 H   0  0  0  0  0  0  0  0  0  0  0  0
   15.4056   14.6139   12.2216 H   0  0  0  0  0  0  0  0  0  0  0  0
  1  2  2  0  0  0  0
  1  7  1  0  0  0  0
  1 54  1  0  0  0  0
  2  3  1  0  0  0  0
  2 55  1  0  0  0  0
  3  4  1  0  0  0  0
  3  5  2  0  0  0  0
  4 22  1  0  0  0  0
  4 56  1  0  0  0  0
  4 57  1  0  0  0  0
  5  6  1  0  0  0  0
  5 58  1  0  0  0  0
  6  7  2  0  0  0  0
  6 59  1  0  0  0  0
  7  8  1  0  0  0  0
  8  9  1  0  0  0  0
  8 60  1  0  0  0  0
  8 61  1  0  0  0  0
  9 10  2  0  0  0  0
  9 62  1  0  0  0  0
 10 11  1  0  0  0  0
 10 63  1  0  0  0  0
 11 12  1  0  0  0  0
 11 64  1  0  0  0  0
 11 65  1  0  0  0  0
 12 13  1  0  0  0  0
 12 66  1  0  0  0  0
 13 14  2  0  0  0  0
 13 15  1  0  0  0  0
 15 16  1  0  0  0  0
 15 19  1  0  0  0  0
 15 67  1  1  0  0  0
 16 17  1  0  0  0  0
 16 18  1  0  0  0  0
 16 68  1  0  0  0  0
 17 69  1  0  0  0  0
 17 70  1  0  0  0  0
 17 71  1  0  0  0  0
 18 72  1  0  0  0  0
 18 73  1  0  0  0  0
 18 74  1  0  0  0  0
 19 20  1  0  0  0  0
 19 75  1  0  0  0  0
 20 21  2  0  0  0  0
 20 22  1  0  0  0  0
 22 23  1  6  0  0  0
 22 24  1  0  0  0  0
 23 76  1  0  0  0  0
 24 25  1  0  0  0  0
 24 77  1  0  0  0  0
 24 78  1  0  0  0  0
 25 26  1  0  0  0  0
 25 79  1  0  0  0  0
 25 80  1  0  0  0  0
 26 27  1  0  0  0  0
 26 81  1  0  0  0  0
 26 82  1  0  0  0  0
 27 28  1  0  0  0  0
 27 41  1  0  0  0  0
 28 29  1  0  0  0  0
 28 83  1  0  0  0  0
 29 30  2  0  0  0  0
 29 31  1  0  0  0  0
 31 32  1  0  0  0  0
 31 36  1  0  0  0  0
 31 84  1  6  0  0  0
 32 33  1  0  0  0  0
 32 34  1  0  0  0  0
 32 35  1  0  0  0  0
 33 85  1  0  0  0  0
 33 86  1  0  0  0  0
 33 87  1  0  0  0  0
 34 88  1  0  0  0  0
 34 89  1  0  0  0  0
 34 90  1  0  0  0  0
 35 91  1  0  0  0  0
 35 92  1  0  0  0  0
 35 93  1  0  0  0  0
 36 37  1  0  0  0  0
 36 94  1  0  0  0  0
 37 38  2  0  0  0  0
 37 39  1  0  0  0  0
 39 40  1  0  0  0  0
 40 95  1  0  0  0  0
 40 96  1  0  0  0  0
 40 97  1  0  0  0  0
 41 42  1  0  0  0  0
 41 98  1  0  0  0  0
 41 99  1  0  0  0  0
 42 43  2  0  0  0  0
 42 45  1  0  0  0  0
 43 44  1  0  0  0  0
 43100  1  0  0  0  0
 44 47  2  0  0  0  0
 44101  1  0  0  0  0
 45 46  2  0  0  0  0
 45102  1  0  0  0  0
 46 47  1  0  0  0  0
 46103  1  0  0  0  0
 47 49  1  0  0  0  0
 48 49  2  0  0  0  0
 48 53  1  0  0  0  0
 48104  1  0  0  0  0
 49 50  1  0  0  0  0
 50 51  2  0  0  0  0
 50105  1  0  0  0  0
 51 52  1  0  0  0  0
 51106  1  0  0  0  0
 52 53  2  0  0  0  0
 53107  1  0  0  0  0
M  END
$$$$
