1T8
 OpenBabel04111918203D

107110  0  0  1  0  0  0  0  0999 V2000
    7.8346   23.4463    2.6806 C   0  0  0  0  0  0  0  0  0  0  0  0
    9.1031   23.0047    3.0450 C   0  0  0  0  0  0  0  0  0  0  0  0
   10.2277   23.7969    2.7878 C   0  0  0  0  0  0  0  0  0  0  0  0
   11.5798   23.3562    3.2923 C   0  0  0  0  0  0  0  0  0  0  0  0
   10.0660   25.0344    2.1581 C   0  0  0  0  0  0  0  0  0  0  0  0
    8.7934   25.4840    1.8119 C   0  0  0  0  0  0  0  0  0  0  0  0
    7.6632   24.7012    2.0810 C   0  0  0  0  0  0  0  0  0  0  0  0
    6.2927   25.2128    1.7043 C   0  0  0  0  0  0  0  0  0  0  0  0
    5.2258   24.9298    2.7306 C   0  0  0  0  0  0  0  0  0  0  0  0
    5.1196   25.5154    3.9372 C   0  0  0  0  0  0  0  0  0  0  0  0
    6.0318   26.5747    4.4719 C   0  0  0  0  0  0  0  0  0  0  0  0
    6.9715   25.9565    5.3703 N   0  0  0  0  0  0  0  0  0  0  0  0
    8.2025   26.5357    5.5981 C   0  0  0  0  0  0  0  0  0  0  0  0
    8.5358   27.6152    5.1090 O   0  0  0  0  0  0  0  0  0  0  0  0
    9.1511   25.7140    6.4928 C   0  0  2  0  0  0  0  0  0  0  0  0
    9.5157   26.5112    7.7640 C   0  0  0  0  0  0  0  0  0  0  0  0
    8.2764   26.7387    8.6364 C   0  0  0  0  0  0  0  0  0  0  0  0
   10.5926   25.8051    8.5949 C   0  0  0  0  0  0  0  0  0  0  0  0
   10.3233   25.4453    5.6778 N   0  0  0  0  0  0  0  0  0  0  0  0
   10.9017   24.2029    5.5707 C   0  0  0  0  0  0  0  0  0  0  0  0
   10.5185   23.2236    6.2098 O   0  0  0  0  0  0  0  0  0  0  0  0
   12.0529   24.1503    4.5299 C   0  0  2  0  0  0  0  0  0  0  0  0
   12.4581   25.4779    4.1368 O   0  0  0  0  0  0  0  0  0  0  0  0
   13.2893   23.4592    5.1246 C   0  0  0  0  0  0  0  0  0  0  0  0
   13.6869   24.0517    6.4774 C   0  0  0  0  0  0  0  0  0  0  0  0
   15.1601   23.8502    6.8078 C   0  0  0  0  0  0  0  0  0  0  0  0
   15.3987   22.4558    7.1886 N   0  0  0  0  0  0  0  0  0  0  0  0
   15.9318   21.6977    6.1204 N   0  0  0  0  0  0  0  0  0  0  0  0
   15.2842   20.5206    5.7274 C   0  0  0  0  0  0  0  0  0  0  0  0
   14.1922   20.1431    6.1423 O   0  0  0  0  0  0  0  0  0  0  0  0
   16.1652   19.6708    4.7930 C   0  0  2  0  0  0  0  0  0  0  0  0
   15.4368   18.9241    3.6412 C   0  0  0  0  0  0  0  0  0  0  0  0
   14.5272   17.7868    4.1353 C   0  0  0  0  0  0  0  0  0  0  0  0
   14.6033   19.9254    2.8180 C   0  0  0  0  0  0  0  0  0  0  0  0
   16.5074   18.3174    2.7030 C   0  0  0  0  0  0  0  0  0  0  0  0
   16.9245   18.7652    5.6428 N   0  0  0  0  0  0  0  0  0  0  0  0
   18.2646   18.9064    5.8191 C   0  0  0  0  0  0  0  0  0  0  0  0
   18.9424   19.7736    5.2845 O   0  0  0  0  0  0  0  0  0  0  0  0
   18.7315   17.9584    6.6646 O   0  0  0  0  0  0  0  0  0  0  0  0
   20.1455   18.0237    6.8443 C   0  0  0  0  0  0  0  0  0  0  0  0
   16.2274   22.3892    8.3969 C   0  0  0  0  0  0  0  0  0  0  0  0
   16.3037   21.0021    8.9837 C   0  0  0  0  0  0  0  0  0  0  0  0
   17.5129   20.3077    9.0177 C   0  0  0  0  0  0  0  0  0  0  0  0
   17.5823   19.0532    9.6243 C   0  0  0  0  0  0  0  0  0  0  0  0
   15.1610   20.4069    9.5228 C   0  0  0  0  0  0  0  0  0  0  0  0
   15.2379   19.1602   10.1416 C   0  0  0  0  0  0  0  0  0  0  0  0
   16.4574   18.4671   10.2223 C   0  0  0  0  0  0  0  0  0  0  0  0
   16.5524   17.1863   10.9455 C   0  0  0  0  0  0  0  0  0  0  0  0
   17.6851   16.8470   11.6996 C   0  0  0  0  0  0  0  0  0  0  0  0
   17.7334   15.6560   12.4166 C   0  0  0  0  0  0  0  0  0  0  0  0
   16.6337   14.8176   12.3726 C   0  0  0  0  0  0  0  0  0  0  0  0
   15.5230   15.0820   11.6555 N   0  0  0  0  0  0  0  0  0  0  0  0
   15.5118   16.2511   10.9660 C   0  0  0  0  0  0  0  0  0  0  0  0
    6.9783   22.8154    2.9046 H   0  0  0  0  0  0  0  0  0  0  0  0
    9.2035   22.0557    3.5693 H   0  0  0  0  0  0  0  0  0  0  0  0
   12.3027   23.4533    2.4722 H   0  0  0  0  0  0  0  0  0  0  0  0
   11.5303   22.2862    3.5352 H   0  0  0  0  0  0  0  0  0  0  0  0
   10.9213   25.6791    1.9734 H   0  0  0  0  0  0  0  0  0  0  0  0
    8.6904   26.4674    1.3589 H   0  0  0  0  0  0  0  0  0  0  0  0
    6.0088   24.7567    0.7488 H   0  0  0  0  0  0  0  0  0  0  0  0
    6.3282   26.2946    1.5220 H   0  0  0  0  0  0  0  0  0  0  0  0
    4.5010   24.1665    2.4543 H   0  0  0  0  0  0  0  0  0  0  0  0
    4.3033   25.2123    4.5893 H   0  0  0  0  0  0  0  0  0  0  0  0
    5.4582   27.3202    5.0319 H   0  0  0  0  0  0  0  0  0  0  0  0
    6.5661   27.1043    3.6775 H   0  0  0  0  0  0  0  0  0  0  0  0
    6.8242   24.9956    5.6498 H   0  0  0  0  0  0  0  0  0  0  0  0
    8.6782   24.7638    6.7689 H   0  0  0  0  0  0  0  0  0  0  0  0
    9.9113   27.4940    7.4748 H   0  0  0  0  0  0  0  0  0  0  0  0
    8.5350   27.3000    9.5401 H   0  0  0  0  0  0  0  0  0  0  0  0
    7.8313   25.7863    8.9441 H   0  0  0  0  0  0  0  0  0  0  0  0
    7.5127   27.3131    8.1027 H   0  0  0  0  0  0  0  0  0  0  0  0
   11.5260   25.7037    8.0338 H   0  0  0  0  0  0  0  0  0  0  0  0
   10.2663   24.8054    8.9006 H   0  0  0  0  0  0  0  0  0  0  0  0
   10.8239   26.3789    9.4986 H   0  0  0  0  0  0  0  0  0  0  0  0
   10.6812   26.1756    5.0626 H   0  0  0  0  0  0  0  0  0  0  0  0
   13.1048   25.3843    3.4171 H   0  0  0  0  0  0  0  0  0  0  0  0
   14.1250   23.5687    4.4207 H   0  0  0  0  0  0  0  0  0  0  0  0
   13.1010   22.3870    5.2433 H   0  0  0  0  0  0  0  0  0  0  0  0
   13.0687   23.5992    7.2649 H   0  0  0  0  0  0  0  0  0  0  0  0
   13.4789   25.1273    6.5040 H   0  0  0  0  0  0  0  0  0  0  0  0
   15.3916   24.5304    7.6369 H   0  0  0  0  0  0  0  0  0  0  0  0
   15.8003   24.1670    5.9749 H   0  0  0  0  0  0  0  0  0  0  0  0
   16.9220   21.7938    5.9047 H   0  0  0  0  0  0  0  0  0  0  0  0
   16.8660   20.3666    4.3120 H   0  0  0  0  0  0  0  0  0  0  0  0
   14.0555   17.2697    3.2910 H   0  0  0  0  0  0  0  0  0  0  0  0
   13.7197   18.1536    4.7750 H   0  0  0  0  0  0  0  0  0  0  0  0
   15.0889   17.0349    4.7002 H   0  0  0  0  0  0  0  0  0  0  0  0
   15.2286   20.7452    2.4455 H   0  0  0  0  0  0  0  0  0  0  0  0
   13.7943   20.3656    3.4099 H   0  0  0  0  0  0  0  0  0  0  0  0
   14.1459   19.4384    1.9496 H   0  0  0  0  0  0  0  0  0  0  0  0
   17.1361   17.5882    3.2257 H   0  0  0  0  0  0  0  0  0  0  0  0
   17.1668   19.0959    2.3026 H   0  0  0  0  0  0  0  0  0  0  0  0
   16.0473   17.8034    1.8518 H   0  0  0  0  0  0  0  0  0  0  0  0
   16.4393   18.1474    6.2850 H   0  0  0  0  0  0  0  0  0  0  0  0
   20.4369   17.2690    7.5783 H   0  0  0  0  0  0  0  0  0  0  0  0
   20.4406   19.0078    7.2239 H   0  0  0  0  0  0  0  0  0  0  0  0
   20.6560   17.8066    5.8998 H   0  0  0  0  0  0  0  0  0  0  0  0
   15.7953   23.0246    9.1813 H   0  0  0  0  0  0  0  0  0  0  0  0
   17.2343   22.7799    8.1990 H   0  0  0  0  0  0  0  0  0  0  0  0
   18.4087   20.7383    8.5771 H   0  0  0  0  0  0  0  0  0  0  0  0
   18.5403   18.5391    9.6245 H   0  0  0  0  0  0  0  0  0  0  0  0
   14.1987   20.9167    9.4660 H   0  0  0  0  0  0  0  0  0  0  0  0
   14.3297   18.7578   10.5845 H   0  0  0  0  0  0  0  0  0  0  0  0
   18.5390   17.5224   11.7542 H   0  0  0  0  0  0  0  0  0  0  0  0
   18.6070   15.3915   13.0104 H   0  0  0  0  0  0  0  0  0  0  0  0
   16.6147   13.8882   12.9311 H   0  0  0  0  0  0  0  0  0  0  0  0
   14.5977   16.4173   10.4037 H   0  0  0  0  0  0  0  0  0  0  0  0
  1  2  2  0  0  0  0
  1  7  1  0  0  0  0
  1 54  1  0  0  0  0
  2  3  1  0  0  0  0
  2 55  1  0  0  0  0
  3  4  1  0  0  0  0
  3  5  2  0  0  0  0
  4 22  1  0  0  0  0
  4 56  1  0  0  0  0
  4 57  1  0  0  0  0
  5  6  1  0  0  0  0
  5 58  1  0  0  0  0
  6  7  2  0  0  0  0
  6 59  1  0  0  0  0
  7  8  1  0  0  0  0
  8  9  1  0  0  0  0
  8 60  1  0  0  0  0
  8 61  1  0  0  0  0
  9 10  2  0  0  0  0
  9 62  1  0  0  0  0
 10 11  1  0  0  0  0
 10 63  1  0  0  0  0
 11 12  1  0  0  0  0
 11 64  1  0  0  0  0
 11 65  1  0  0  0  0
 12 13  1  0  0  0  0
 12 66  1  0  0  0  0
 13 14  2  0  0  0  0
 13 15  1  0  0  0  0
 15 16  1  0  0  0  0
 15 19  1  0  0  0  0
 15 67  1  1  0  0  0
 16 17  1  0  0  0  0
 16 18  1  0  0  0  0
 16 68  1  0  0  0  0
 17 69  1  0  0  0  0
 17 70  1  0  0  0  0
 17 71  1  0  0  0  0
 18 72  1  0  0  0  0
 18 73  1  0  0  0  0
 18 74  1  0  0  0  0
 19 20  1  0  0  0  0
 19 75  1  0  0  0  0
 20 21  2  0  0  0  0
 20 22  1  0  0  0  0
 22 23  1  6  0  0  0
 22 24  1  0  0  0  0
 23 76  1  0  0  0  0
 24 25  1  0  0  0  0
 24 77  1  0  0  0  0
 24 78  1  0  0  0  0
 25 26  1  0  0  0  0
 25 79  1  0  0  0  0
 25 80  1  0  0  0  0
 26 27  1  0  0  0  0
 26 81  1  0  0  0  0
 26 82  1  0  0  0  0
 27 28  1  0  0  0  0
 27 41  1  0  0  0  0
 28 29  1  0  0  0  0
 28 83  1  0  0  0  0
 29 30  2  0  0  0  0
 29 31  1  0  0  0  0
 31 32  1  0  0  0  0
 31 36  1  0  0  0  0
 31 84  1  6  0  0  0
 32 33  1  0  0  0  0
 32 34  1  0  0  0  0
 32 35  1  0  0  0  0
 33 85  1  0  0  0  0
 33 86  1  0  0  0  0
 33 87  1  0  0  0  0
 34 88  1  0  0  0  0
 34 89  1  0  0  0  0
 34 90  1  0  0  0  0
 35 91  1  0  0  0  0
 35 92  1  0  0  0  0
 35 93  1  0  0  0  0
 36 37  1  0  0  0  0
 36 94  1  0  0  0  0
 37 38  2  0  0  0  0
 37 39  1  0  0  0  0
 39 40  1  0  0  0  0
 40 95  1  0  0  0  0
 40 96  1  0  0  0  0
 40 97  1  0  0  0  0
 41 42  1  0  0  0  0
 41 98  1  0  0  0  0
 41 99  1  0  0  0  0
 42 43  2  0  0  0  0
 42 45  1  0  0  0  0
 43 44  1  0  0  0  0
 43100  1  0  0  0  0
 44 47  2  0  0  0  0
 44101  1  0  0  0  0
 45 46  2  0  0  0  0
 45102  1  0  0  0  0
 46 47  1  0  0  0  0
 46103  1  0  0  0  0
 47 48  1  0  0  0  0
 48 49  2  0  0  0  0
 48 53  1  0  0  0  0
 49 50  1  0  0  0  0
 49104  1  0  0  0  0
 50 51  2  0  0  0  0
 50105  1  0  0  0  0
 51 52  1  0  0  0  0
 51106  1  0  0  0  0
 52 53  2  0  0  0  0
 53107  1  0  0  0  0
M  END
$$$$
