1VY
 OpenBabel04111920033D

 39 40  0  0  1  0  0  0  0  0999 V2000
  -88.9124   68.3794   95.6155 O   0  0  0  0  0  0  0  0  0  0  0  0
  -90.0577   67.8658   95.0574 C   0  0  0  0  0  0  0  0  0  0  0  0
  -90.8327   68.6515   94.2719 C   0  0  0  0  0  0  0  0  0  0  0  0
  -90.4061   70.0545   94.0425 C   0  0  0  0  0  0  0  0  0  0  0  0
  -91.9985   68.2375   93.6807 N   0  0  0  0  0  0  0  0  0  0  0  0
  -92.3777   67.0033   93.9330 C   0  0  0  0  0  0  0  0  0  0  0  0
  -93.6618   66.5098   93.4444 C   0  0  0  0  0  0  0  0  0  0  0  0
  -94.4030   67.2180   92.7824 O   0  0  0  0  0  0  0  0  0  0  0  0
  -94.0043   65.2357   93.7276 N   0  3  0  0  0  0  0  0  0  0  0  0
  -93.2073   64.3807   94.4596 C   0  0  0  0  0  0  0  0  0  0  0  0
  -93.5879   63.2494   94.6617 O   0  0  0  0  0  0  0  0  0  0  0  0
  -92.0317   64.8535   94.9772 N   0  0  0  0  0  0  0  0  0  0  0  0
  -91.5722   66.0562   94.7606 C   0  0  0  0  0  0  0  0  0  0  0  0
  -90.3899   66.5464   95.2996 N   0  3  0  0  0  0  0  0  0  0  0  0
  -89.6916   65.7953   96.3285 C   0  0  0  0  0  0  0  0  0  0  0  0
  -88.4690   65.0157   95.8504 C   0  0  2  0  0  0  0  0  0  0  0  0
  -87.6404   65.8233   94.9947 O   0  0  0  0  0  0  0  0  0  0  0  0
  -88.8823   63.6891   95.1967 C   0  0  2  0  0  0  0  0  0  0  0  0
  -90.0484   63.1285   95.8269 O   0  0  0  0  0  0  0  0  0  0  0  0
  -87.7288   62.6583   95.2452 C   0  0  2  0  0  0  0  0  0  0  0  0
  -88.1355   61.5788   94.3856 O   0  0  0  0  0  0  0  0  0  0  0  0
  -87.4990   62.0751   96.6487 C   0  0  0  0  0  0  0  0  0  0  0  0
  -86.1083   61.9903   96.9872 O   0  0  0  0  0  0  0  0  0  0  0  0
  -88.1918   67.8360   95.2434 H   0  0  0  0  0  0  0  0  0  0  0  0
  -91.1113   70.5684   93.3861 H   0  0  0  0  0  0  0  0  0  0  0  0
  -89.4162   70.0500   93.5688 H   0  0  0  0  0  0  0  0  0  0  0  0
  -90.3468   70.5910   94.9970 H   0  0  0  0  0  0  0  0  0  0  0  0
  -94.8827   64.9057   93.4143 H   0  0  0  0  0  0  0  0  0  0  0  0
  -90.3890   65.1206   96.8229 H   0  0  0  0  0  0  0  0  0  0  0  0
  -89.3707   66.4857   97.1135 H   0  0  0  0  0  0  0  0  0  0  0  0
  -87.8746   64.7972   96.7438 H   0  0  0  0  0  0  0  0  0  0  0  0
  -86.8690   65.2935   94.7192 H   0  0  0  0  0  0  0  0  0  0  0  0
  -89.1281   63.8707   94.1468 H   0  0  0  0  0  0  0  0  0  0  0  0
  -90.8181   63.7083   95.6477 H   0  0  0  0  0  0  0  0  0  0  0  0
  -86.8080   63.0904   94.8306 H   0  0  0  0  0  0  0  0  0  0  0  0
  -87.4487   60.8963   94.4321 H   0  0  0  0  0  0  0  0  0  0  0  0
  -87.9045   61.0633   96.6859 H   0  0  0  0  0  0  0  0  0  0  0  0
  -87.9799   62.7015   97.3955 H   0  0  0  0  0  0  0  0  0  0  0  0
  -86.0587   61.6106   97.8754 H   0  0  0  0  0  0  0  0  0  0  0  0
  1  2  1  0  0  0  0
  1 24  1  0  0  0  0
  2  3  2  0  0  0  0
  2 14  1  0  0  0  0
  3  4  1  0  0  0  0
  3  5  1  0  0  0  0
  4 25  1  0  0  0  0
  4 26  1  0  0  0  0
  4 27  1  0  0  0  0
  5  6  2  0  0  0  0
  6  7  1  0  0  0  0
  6 13  1  0  0  0  0
  7  8  2  0  0  0  0
  7  9  1  0  0  0  0
  9 10  1  0  0  0  0
  9 28  1  0  0  0  0
 10 11  2  0  0  0  0
 10 12  1  0  0  0  0
 12 13  1  0  0  0  0
 13 14  2  0  0  0  0
 14 15  1  0  0  0  0
 15 16  1  0  0  0  0
 15 29  1  0  0  0  0
 15 30  1  0  0  0  0
 16 17  1  0  0  0  0
 16 18  1  0  0  0  0
 16 31  1  1  0  0  0
 17 32  1  0  0  0  0
 18 19  1  0  0  0  0
 18 20  1  0  0  0  0
 18 33  1  6  0  0  0
 19 34  1  0  0  0  0
 20 21  1  0  0  0  0
 20 22  1  0  0  0  0
 20 35  1  6  0  0  0
 21 36  1  0  0  0  0
 22 23  1  0  0  0  0
 22 37  1  0  0  0  0
 22 38  1  0  0  0  0
 23 39  1  0  0  0  0
M  CHG  2   9   1  14   1
M  END
$$$$
