1WK
 OpenBabel04111920053D

 50 53  0  0  1  0  0  0  0  0999 V2000
    9.7667   17.4217   91.3338 C   0  0  0  0  0  0  0  0  0  0  0  0
   10.7947   17.8129   90.4628 C   0  0  0  0  0  0  0  0  0  0  0  0
   10.5074   17.6838   89.1058 C   0  0  0  0  0  0  0  0  0  0  0  0
    9.2964   17.2041   88.6196 C   0  0  0  0  0  0  0  0  0  0  0  0
    8.2679   16.7832   89.4947 C   0  0  0  0  0  0  0  0  0  0  0  0
    6.9796   16.1791   88.9803 C   0  0  0  0  0  0  0  0  0  0  0  0
    6.0095   17.1962   88.3903 C   0  0  0  0  0  0  0  0  0  0  0  0
    8.5323   16.9208   90.8833 C   0  0  0  0  0  0  0  0  0  0  0  0
    9.9983   17.5367   92.7993 C   0  0  0  0  0  0  0  0  0  0  0  0
    7.5700   16.5501   91.8425 N   0  3  0  0  0  0  0  0  0  0  0  0
    7.7677   16.6769   93.1632 C   0  0  0  0  0  0  0  0  0  0  0  0
    6.8511   16.3502   94.0114 N   0  0  0  0  0  0  0  0  0  0  0  0
    8.9618   17.1597   93.6196 N   0  3  0  0  0  0  0  0  0  0  0  0
   11.0569   17.9479   93.2586 O   0  0  0  0  0  0  0  0  0  0  0  0
   11.2450   17.9569   87.9876 N   0  3  0  0  0  0  0  0  0  0  0  0
    9.2986   17.2253   87.2460 N   0  0  0  0  0  0  0  0  0  0  0  0
   10.4777   17.6755   86.8933 C   0  0  0  0  0  0  0  0  0  0  0  0
   10.9375   17.9110   85.6580 N   0  0  0  0  0  0  0  0  0  0  0  0
    9.9727   18.0382   84.5911 C   0  0  0  0  0  0  0  0  0  0  0  0
    3.3561   15.9685   86.1485 C   0  0  2  0  0  0  0  0  0  0  0  0
    2.3177   15.2518   86.8423 O   0  0  0  0  0  0  0  0  0  0  0  0
    4.7006   15.6564   86.7870 C   0  0  2  0  0  0  0  0  0  0  0  0
    4.8207   14.2678   87.0954 O   0  0  0  0  0  0  0  0  0  0  0  0
    4.6659   16.5581   88.0312 C   0  0  2  0  0  0  0  0  0  0  0  0
    3.7421   17.6329   87.7618 O   0  0  0  0  0  0  0  0  0  0  0  0
    3.2675   17.4722   86.4160 C   0  0  1  0  0  0  0  0  0  0  0  0
    4.1166   18.1719   85.5034 O   0  0  0  0  0  0  0  0  0  0  0  0
    4.0541   19.5795   85.6970 C   0  0  0  0  0  0  0  0  0  0  0  0
   11.7472   18.1946   90.8175 H   0  0  0  0  0  0  0  0  0  0  0  0
    6.4590   15.6305   89.7695 H   0  0  0  0  0  0  0  0  0  0  0  0
    7.2252   15.4207   88.2293 H   0  0  0  0  0  0  0  0  0  0  0  0
    6.4398   17.6687   87.4989 H   0  0  0  0  0  0  0  0  0  0  0  0
    5.8289   18.0135   89.1013 H   0  0  0  0  0  0  0  0  0  0  0  0
    6.6668   16.2174   91.5685 H   0  0  0  0  0  0  0  0  0  0  0  0
    7.1715   16.5123   94.9647 H   0  0  0  0  0  0  0  0  0  0  0  0
    9.1339   17.2544   94.6041 H   0  0  0  0  0  0  0  0  0  0  0  0
   12.1684   18.3727   87.9599 H   0  0  0  0  0  0  0  0  0  0  0  0
   11.9196   17.9607   85.4158 H   0  0  0  0  0  0  0  0  0  0  0  0
   10.4873   18.1769   83.6368 H   0  0  0  0  0  0  0  0  0  0  0  0
    9.3379   18.9152   84.7619 H   0  0  0  0  0  0  0  0  0  0  0  0
    9.3357   17.1509   84.5146 H   0  0  0  0  0  0  0  0  0  0  0  0
    3.3126   15.7066   85.0875 H   0  0  0  0  0  0  0  0  0  0  0  0
    2.4843   14.3060   86.6826 H   0  0  0  0  0  0  0  0  0  0  0  0
    5.5209   15.9334   86.1143 H   0  0  0  0  0  0  0  0  0  0  0  0
    4.1587   14.0657   87.7801 H   0  0  0  0  0  0  0  0  0  0  0  0
    4.2765   16.0002   88.8928 H   0  0  0  0  0  0  0  0  0  0  0  0
    2.2392   17.8421   86.3476 H   0  0  0  0  0  0  0  0  0  0  0  0
    4.7386   20.0562   84.9890 H   0  0  0  0  0  0  0  0  0  0  0  0
    4.3664   19.8551   86.7090 H   0  0  0  0  0  0  0  0  0  0  0  0
    3.0422   19.9449   85.5006 H   0  0  0  0  0  0  0  0  0  0  0  0
  1  2  2  0  0  0  0
  1  8  1  0  0  0  0
  1  9  1  0  0  0  0
  2  3  1  0  0  0  0
  2 29  1  0  0  0  0
  3  4  1  0  0  0  0
  3 15  2  0  0  0  0
  4  5  2  0  0  0  0
  4 16  1  0  0  0  0
  5  6  1  0  0  0  0
  5  8  1  0  0  0  0
  6  7  1  0  0  0  0
  6 30  1  0  0  0  0
  6 31  1  0  0  0  0
  7 24  1  0  0  0  0
  7 32  1  0  0  0  0
  7 33  1  0  0  0  0
  8 10  2  0  0  0  0
  9 13  1  0  0  0  0
  9 14  2  0  0  0  0
 10 11  1  0  0  0  0
 10 34  1  0  0  0  0
 11 12  2  0  0  0  0
 11 13  1  0  0  0  0
 12 35  1  0  0  0  0
 13 36  1  0  0  0  0
 15 17  1  0  0  0  0
 15 37  1  0  0  0  0
 16 17  2  0  0  0  0
 17 18  1  0  0  0  0
 18 19  1  0  0  0  0
 18 38  1  0  0  0  0
 19 39  1  0  0  0  0
 19 40  1  0  0  0  0
 19 41  1  0  0  0  0
 20 21  1  0  0  0  0
 20 22  1  0  0  0  0
 20 26  1  0  0  0  0
 20 42  1  6  0  0  0
 21 43  1  0  0  0  0
 22 23  1  0  0  0  0
 22 24  1  0  0  0  0
 22 44  1  6  0  0  0
 23 45  1  0  0  0  0
 24 25  1  0  0  0  0
 24 46  1  1  0  0  0
 25 26  1  0  0  0  0
 26 27  1  0  0  0  0
 26 47  1  6  0  0  0
 27 28  1  0  0  0  0
 28 48  1  0  0  0  0
 28 49  1  0  0  0  0
 28 50  1  0  0  0  0
M  CHG  3  10   1  13   1  15   1
M  END
$$$$
