1XM
 OpenBabel04111920073D

 15 16  0  0  0  0  0  0  0  0999 V2000
    2.8240   15.0545   41.9338 N   0  0  0  0  0  0  0  0  0  0  0  0
    3.4300   14.0569   42.6852 C   0  0  0  0  0  0  0  0  0  0  0  0
    3.5190   14.1247   44.0347 N   0  0  0  0  0  0  0  0  0  0  0  0
    4.1228   13.1047   44.7143 C   0  0  0  0  0  0  0  0  0  0  0  0
    4.2133   13.2200   46.4491 S   0  0  0  0  0  0  0  0  0  0  0  0
    4.6678   11.9918   44.1705 N   0  0  0  0  0  0  0  0  0  0  0  0
    4.5513   11.9761   42.8363 C   0  0  0  0  0  0  0  0  0  0  0  0
    4.9792   11.0050   41.9521 N   0  3  0  0  0  0  0  0  0  0  0  0
    4.6797   11.3261   40.6412 N   0  0  0  0  0  0  0  0  0  0  0  0
    4.0638   12.5084   40.7102 C   0  0  0  0  0  0  0  0  0  0  0  0
    3.9613   12.9478   42.0549 C   0  0  0  0  0  0  0  0  0  0  0  0
    2.7696   14.9779   40.9272 H   0  0  0  0  0  0  0  0  0  0  0  0
    2.4457   15.8464   42.4290 H   0  0  0  0  0  0  0  0  0  0  0  0
    5.4557   10.1441   42.1726 H   0  0  0  0  0  0  0  0  0  0  0  0
    3.6863   13.0633   39.8581 H   0  0  0  0  0  0  0  0  0  0  0  0
  1  2  1  0  0  0  0
  1 12  1  0  0  0  0
  1 13  1  0  0  0  0
  2  3  2  0  0  0  0
  2 11  1  0  0  0  0
  3  4  1  0  0  0  0
  4  5  1  0  0  0  0
  4  6  2  0  0  0  0
  6  7  1  0  0  0  0
  7  8  2  0  0  0  0
  7 11  1  0  0  0  0
  8  9  1  0  0  0  0
  8 14  1  0  0  0  0
  9 10  1  0  0  0  0
 10 11  2  0  0  0  0
 10 15  1  0  0  0  0
M  CHG  1   8   1
M  END
$$$$
