1YE
 OpenBabel04111921313D

 34 36  0  0  0  0  0  0  0  0999 V2000
  -16.9158   52.0908   -3.6355 O   0  0  0  0  0  0  0  0  0  0  0  0
  -18.0459   52.1616   -3.2218 C   0  0  0  0  0  0  0  0  0  0  0  0
  -19.1791   52.0712   -4.1348 C   0  0  0  0  0  0  0  0  0  0  0  0
  -18.9737   51.8769   -5.4763 C   0  0  0  0  0  0  0  0  0  0  0  0
  -20.0717   51.7582   -6.3039 C   0  0  0  0  0  0  0  0  0  0  0  0
  -21.3642   51.8331   -5.7884 C   0  0  0  0  0  0  0  0  0  0  0  0
  -22.5431   51.7063   -6.6810 C   0  0  0  0  0  0  0  0  0  0  0  0
  -21.5538   52.0400   -4.4320 C   0  0  0  0  0  0  0  0  0  0  0  0
  -22.8950   52.1168   -3.7860 C   0  0  0  0  0  0  0  0  0  0  0  0
  -20.4479   52.1617   -3.6163 C   0  0  0  0  0  0  0  0  0  0  0  0
  -20.7199   52.3541   -2.3085 O   0  3  0  0  0  0  0  0  0  0  0  0
  -19.6769   52.3928   -1.4444 C   0  0  0  0  0  0  0  0  0  0  0  0
  -18.3457   52.3191   -1.8029 C   0  0  0  0  0  0  0  0  0  0  0  0
  -17.3381   52.3747   -0.8680 C   0  0  0  0  0  0  0  0  0  0  0  0
  -17.6935   52.5219    0.4613 C   0  0  0  0  0  0  0  0  0  0  0  0
  -19.0357   52.6186    0.8447 C   0  0  0  0  0  0  0  0  0  0  0  0
  -20.0313   52.5329   -0.1188 C   0  0  0  0  0  0  0  0  0  0  0  0
  -21.4804   52.6236    0.2436 C   0  0  0  0  0  0  0  0  0  0  0  0
  -22.3735   51.4075   -0.0695 C   0  0  0  0  0  0  0  0  0  0  0  0
  -23.6047   51.6240    0.1421 O   0  0  0  0  0  0  0  0  0  0  0  0
  -21.8361   50.3370   -0.4673 O   0  0  0  0  0  0  0  0  0  0  0  0
  -17.9671   51.8237   -5.8613 H   0  0  0  0  0  0  0  0  0  0  0  0
  -19.9290   51.6045   -7.3650 H   0  0  0  0  0  0  0  0  0  0  0  0
  -22.1987   51.5513   -7.7005 H   0  0  0  0  0  0  0  0  0  0  0  0
  -23.1250   52.6302   -6.6171 H   0  0  0  0  0  0  0  0  0  0  0  0
  -23.1404   50.8521   -6.3516 H   0  0  0  0  0  0  0  0  0  0  0  0
  -23.6807   51.9913   -4.5244 H   0  0  0  0  0  0  0  0  0  0  0  0
  -22.9909   53.0974   -3.3111 H   0  0  0  0  0  0  0  0  0  0  0  0
  -22.9663   51.3229   -3.0380 H   0  0  0  0  0  0  0  0  0  0  0  0
  -16.2950   52.3007   -1.1591 H   0  0  0  0  0  0  0  0  0  0  0  0
  -16.9377   52.5580    1.2273 H   0  0  0  0  0  0  0  0  0  0  0  0
  -19.3058   52.7464    1.8884 H   0  0  0  0  0  0  0  0  0  0  0  0
  -21.8616   53.5114   -0.2870 H   0  0  0  0  0  0  0  0  0  0  0  0
  -21.5103   52.8208    1.3192 H   0  0  0  0  0  0  0  0  0  0  0  0
  1  2  2  0  0  0  0
  2  3  1  0  0  0  0
  2 13  1  0  0  0  0
  3  4  2  0  0  0  0
  3 10  1  0  0  0  0
  4  5  1  0  0  0  0
  4 22  1  0  0  0  0
  5  6  2  0  0  0  0
  5 23  1  0  0  0  0
  6  7  1  0  0  0  0
  6  8  1  0  0  0  0
  7 24  1  0  0  0  0
  7 25  1  0  0  0  0
  7 26  1  0  0  0  0
  8  9  1  0  0  0  0
  8 10  2  0  0  0  0
  9 27  1  0  0  0  0
  9 28  1  0  0  0  0
  9 29  1  0  0  0  0
 10 11  1  0  0  0  0
 11 12  1  0  0  0  0
 12 13  2  0  0  0  0
 12 17  1  0  0  0  0
 13 14  1  0  0  0  0
 14 15  2  0  0  0  0
 14 30  1  0  0  0  0
 15 16  1  0  0  0  0
 15 31  1  0  0  0  0
 16 17  2  0  0  0  0
 16 32  1  0  0  0  0
 17 18  1  0  0  0  0
 18 19  1  0  0  0  0
 18 33  1  0  0  0  0
 18 34  1  0  0  0  0
 19 20  2  0  0  0  0
 19 21  1  0  0  0  0
M  CHG  1  11   1
M  END
$$$$
