1YK
 OpenBabel04111920153D

 72 76  0  0  1  0  0  0  0  0999 V2000
  -13.8300  -46.1220   29.2445 C   0  0  0  0  0  0  0  0  0  0  0  0
  -13.5556  -44.6537   29.6433 C   0  0  1  0  0  0  0  0  0  0  0  0
  -13.3188  -44.6103   31.1654 C   0  0  0  0  0  0  0  0  0  0  0  0
  -11.9181  -45.1013   31.5348 C   0  0  0  0  0  0  0  0  0  0  0  0
  -10.8123  -44.2468   30.8815 C   0  0  2  0  0  0  0  0  0  0  0  0
  -10.9255  -44.3337   29.3147 C   0  0  1  0  0  0  0  0  0  0  0  0
  -12.3843  -43.9111   28.8803 C   0  0  1  0  0  0  0  0  0  0  0  0
  -12.6712  -44.0610   27.3736 C   0  0  0  0  0  0  0  0  0  0  0  0
  -14.1066  -43.7241   27.0903 C   0  0  0  0  0  0  0  0  0  0  0  0
  -15.0548  -43.6616   28.0419 C   0  0  0  0  0  0  0  0  0  0  0  0
  -16.4064  -43.2740   27.7495 C   0  0  0  0  0  0  0  0  0  0  0  0
  -16.7393  -42.9923   26.4726 C   0  0  0  0  0  0  0  0  0  0  0  0
  -15.7519  -43.0815   25.4621 O   0  3  0  0  0  0  0  0  0  0  0  0
  -14.4614  -43.4275   25.6969 C   0  0  0  0  0  0  0  0  0  0  0  0
  -13.6366  -43.5098   24.7881 O   0  0  0  0  0  0  0  0  0  0  0  0
  -18.0738  -42.5764   25.9562 C   0  0  0  0  0  0  0  0  0  0  0  0
  -19.2256  -42.4406   26.7375 C   0  0  0  0  0  0  0  0  0  0  0  0
  -20.4550  -42.0466   26.1628 C   0  0  0  0  0  0  0  0  0  0  0  0
  -20.5533  -41.7478   24.7951 C   0  0  0  0  0  0  0  0  0  0  0  0
  -19.4173  -41.9083   24.0043 C   0  0  0  0  0  0  0  0  0  0  0  0
  -18.2003  -42.2970   24.5851 C   0  0  0  0  0  0  0  0  0  0  0  0
  -19.4369  -41.6356   22.6636 O   0  0  0  0  0  0  0  0  0  0  0  0
  -19.3193  -42.8276   21.8887 C   0  0  0  0  0  0  0  0  0  0  0  0
  -21.8040  -41.4630   24.3066 O   0  0  0  0  0  0  0  0  0  0  0  0
  -21.8886  -40.3096   23.4762 C   0  0  0  0  0  0  0  0  0  0  0  0
  -21.5914  -41.8547   26.9137 O   0  0  0  0  0  0  0  0  0  0  0  0
  -21.8129  -42.8606   27.8920 C   0  0  0  0  0  0  0  0  0  0  0  0
  -14.8085  -43.9442   29.3800 O   0  0  0  0  0  0  0  0  0  0  0  0
  -12.5087  -42.5026   29.2496 O   0  0  0  0  0  0  0  0  0  0  0  0
   -9.8490  -43.3851   28.7525 C   0  0  0  0  0  0  0  0  0  0  0  0
   -9.9793  -42.7469   27.7102 O   0  0  0  0  0  0  0  0  0  0  0  0
   -8.5073  -43.3854   29.3896 C   0  0  0  0  0  0  0  0  0  0  0  0
   -8.2972  -43.9618   30.5799 C   0  0  0  0  0  0  0  0  0  0  0  0
   -9.3794  -44.5867   31.4514 C   0  0  0  0  0  0  0  0  0  0  0  0
   -9.2345  -43.9875   32.8733 C   0  0  0  0  0  0  0  0  0  0  0  0
   -9.1025  -46.0955   31.6147 C   0  0  0  0  0  0  0  0  0  0  0  0
  -10.5394  -45.7029   28.7149 C   0  0  0  0  0  0  0  0  0  0  0  0
  -11.0844  -42.8884   31.3145 O   0  0  0  0  0  0  0  0  0  0  0  0
  -14.6786  -46.5108   29.8204 H   0  0  0  0  0  0  0  0  0  0  0  0
  -13.0008  -46.7989   29.4223 H   0  0  0  0  0  0  0  0  0  0  0  0
  -14.1240  -46.2214   28.1969 H   0  0  0  0  0  0  0  0  0  0  0  0
  -14.0607  -45.2246   31.6910 H   0  0  0  0  0  0  0  0  0  0  0  0
  -13.4856  -43.5980   31.5549 H   0  0  0  0  0  0  0  0  0  0  0  0
  -11.8076  -46.1508   31.2466 H   0  0  0  0  0  0  0  0  0  0  0  0
  -11.8339  -45.0664   32.6249 H   0  0  0  0  0  0  0  0  0  0  0  0
  -12.5066  -45.0925   27.0428 H   0  0  0  0  0  0  0  0  0  0  0  0
  -12.0127  -43.4231   26.7812 H   0  0  0  0  0  0  0  0  0  0  0  0
  -17.1039  -43.2327   28.5754 H   0  0  0  0  0  0  0  0  0  0  0  0
  -19.1704  -42.6168   27.8053 H   0  0  0  0  0  0  0  0  0  0  0  0
  -17.3368  -42.3742   23.9272 H   0  0  0  0  0  0  0  0  0  0  0  0
  -19.3432  -42.5380   20.8342 H   0  0  0  0  0  0  0  0  0  0  0  0
  -20.1610  -43.5018   22.0791 H   0  0  0  0  0  0  0  0  0  0  0  0
  -18.3690  -43.3400   22.0707 H   0  0  0  0  0  0  0  0  0  0  0  0
  -22.9497  -40.1420   23.2592 H   0  0  0  0  0  0  0  0  0  0  0  0
  -21.3992  -40.4548   22.5123 H   0  0  0  0  0  0  0  0  0  0  0  0
  -21.5044  -39.4184   23.9828 H   0  0  0  0  0  0  0  0  0  0  0  0
  -22.7904  -42.6813   28.3470 H   0  0  0  0  0  0  0  0  0  0  0  0
  -21.0690  -42.8004   28.6901 H   0  0  0  0  0  0  0  0  0  0  0  0
  -21.8215  -43.8562   27.4350 H   0  0  0  0  0  0  0  0  0  0  0  0
  -13.3848  -42.1793   28.9682 H   0  0  0  0  0  0  0  0  0  0  0  0
   -7.7105  -42.9220   28.8139 H   0  0  0  0  0  0  0  0  0  0  0  0
   -7.2817  -43.9542   30.9733 H   0  0  0  0  0  0  0  0  0  0  0  0
   -8.2595  -44.2283   33.3088 H   0  0  0  0  0  0  0  0  0  0  0  0
   -9.9975  -44.3941   33.5448 H   0  0  0  0  0  0  0  0  0  0  0  0
   -9.3302  -42.8966   32.8800 H   0  0  0  0  0  0  0  0  0  0  0  0
   -9.1489  -46.6683   30.6903 H   0  0  0  0  0  0  0  0  0  0  0  0
   -9.8144  -46.5541   32.3090 H   0  0  0  0  0  0  0  0  0  0  0  0
   -8.1024  -46.2649   32.0295 H   0  0  0  0  0  0  0  0  0  0  0  0
   -9.5006  -45.9700   28.9073 H   0  0  0  0  0  0  0  0  0  0  0  0
  -10.5975  -45.6985   27.6222 H   0  0  0  0  0  0  0  0  0  0  0  0
  -11.1474  -46.5202   29.0875 H   0  0  0  0  0  0  0  0  0  0  0  0
  -11.8235  -42.5139   30.7887 H   0  0  0  0  0  0  0  0  0  0  0  0
  1 39  1  0  0  0  0
  1 40  1  0  0  0  0
  1 41  1  0  0  0  0
  2  1  1  6  0  0  0
  2  3  1  0  0  0  0
  2  7  1  0  0  0  0
  2 28  1  0  0  0  0
  3  4  1  0  0  0  0
  3 42  1  0  0  0  0
  3 43  1  0  0  0  0
  4  5  1  0  0  0  0
  4 44  1  0  0  0  0
  4 45  1  0  0  0  0
  5  6  1  0  0  0  0
  5 34  1  0  0  0  0
  5 38  1  1  0  0  0
  6  7  1  0  0  0  0
  6 30  1  0  0  0  0
  6 37  1  6  0  0  0
  7  8  1  0  0  0  0
  7 29  1  1  0  0  0
  8  9  1  0  0  0  0
  8 46  1  0  0  0  0
  8 47  1  0  0  0  0
  9 10  2  0  0  0  0
  9 14  1  0  0  0  0
 10 11  1  0  0  0  0
 10 28  1  0  0  0  0
 11 12  2  0  0  0  0
 11 48  1  0  0  0  0
 12 13  1  0  0  0  0
 12 16  1  0  0  0  0
 13 14  1  0  0  0  0
 14 15  2  0  0  0  0
 16 17  2  0  0  0  0
 16 21  1  0  0  0  0
 17 18  1  0  0  0  0
 17 49  1  0  0  0  0
 18 19  2  0  0  0  0
 18 26  1  0  0  0  0
 19 20  1  0  0  0  0
 19 24  1  0  0  0  0
 20 21  2  0  0  0  0
 20 22  1  0  0  0  0
 21 50  1  0  0  0  0
 22 23  1  0  0  0  0
 23 51  1  0  0  0  0
 23 52  1  0  0  0  0
 23 53  1  0  0  0  0
 24 25  1  0  0  0  0
 25 54  1  0  0  0  0
 25 55  1  0  0  0  0
 25 56  1  0  0  0  0
 26 27  1  0  0  0  0
 27 57  1  0  0  0  0
 27 58  1  0  0  0  0
 27 59  1  0  0  0  0
 29 60  1  0  0  0  0
 30 31  2  0  0  0  0
 30 32  1  0  0  0  0
 32 33  2  0  0  0  0
 32 61  1  0  0  0  0
 33 34  1  0  0  0  0
 33 62  1  0  0  0  0
 34 35  1  0  0  0  0
 34 36  1  0  0  0  0
 35 63  1  0  0  0  0
 35 64  1  0  0  0  0
 35 65  1  0  0  0  0
 36 66  1  0  0  0  0
 36 67  1  0  0  0  0
 36 68  1  0  0  0  0
 37 69  1  0  0  0  0
 37 70  1  0  0  0  0
 37 71  1  0  0  0  0
 38 72  1  0  0  0  0
M  CHG  1  13   1
M  END
$$$$
