1YL
 OpenBabel04111920153D

 35 38  0  0  1  0  0  0  0  0999 V2000
  -21.8939  -40.4331   26.3778 C   0  0  0  0  0  0  0  0  0  0  0  0
  -20.8383  -40.7243   25.2899 C   0  0  0  0  0  0  0  0  0  0  0  0
  -21.0646  -40.3852   23.9198 C   0  0  0  0  0  0  0  0  0  0  0  0
  -20.0954  -40.6651   22.9283 C   0  0  0  0  0  0  0  0  0  0  0  0
  -18.8852  -41.2898   23.3056 C   0  0  0  0  0  0  0  0  0  0  0  0
  -18.5875  -41.6522   24.6731 C   0  0  0  0  0  0  0  0  0  0  0  0
  -19.6016  -41.3549   25.6677 C   0  0  0  0  0  0  0  0  0  0  0  0
  -19.3505  -41.6963   27.0320 C   0  0  0  0  0  0  0  0  0  0  0  0
  -18.1442  -42.3208   27.4494 C   0  0  0  0  0  0  0  0  0  0  0  0
  -17.1098  -42.6338   26.5256 C   0  0  0  0  0  0  0  0  0  0  0  0
  -17.3404  -42.2915   25.1328 C   0  0  0  0  0  0  0  0  0  0  0  0
  -16.2387  -42.6127   24.1025 C   0  0  0  0  0  0  0  0  0  0  0  0
  -16.3055  -42.3694   22.9172 O   0  0  0  0  0  0  0  0  0  0  0  0
  -14.9230  -43.3054   24.6534 C   0  0  0  0  0  0  0  0  0  0  0  0
  -14.0373  -43.5656   23.8203 O   0  0  0  0  0  0  0  0  0  0  0  0
  -14.8017  -43.6108   26.1076 C   0  0  0  0  0  0  0  0  0  0  0  0
  -15.8135  -43.3720   26.9477 C   0  0  0  0  0  0  0  0  0  0  0  0
  -15.5320  -43.6887   28.2937 O   0  0  0  0  0  0  0  0  0  0  0  0
  -14.3594  -44.5886   28.2032 C   0  0  0  0  0  0  0  0  0  0  0  0
  -13.6487  -44.2330   26.8599 C   0  0  2  0  0  0  0  0  0  0  0  0
  -12.4703  -43.2431   27.0703 C   0  0  0  0  0  0  0  0  0  0  0  0
  -22.7985  -39.9531   25.9909 H   0  0  0  0  0  0  0  0  0  0  0  0
  -21.4891  -39.7696   27.1618 H   0  0  0  0  0  0  0  0  0  0  0  0
  -22.2142  -41.3625   26.8805 H   0  0  0  0  0  0  0  0  0  0  0  0
  -22.0008  -39.9007   23.6143 H   0  0  0  0  0  0  0  0  0  0  0  0
  -20.2724  -40.4033   21.8745 H   0  0  0  0  0  0  0  0  0  0  0  0
  -18.1526  -41.4940   22.5099 H   0  0  0  0  0  0  0  0  0  0  0  0
  -20.1216  -41.4693   27.7944 H   0  0  0  0  0  0  0  0  0  0  0  0
  -18.0162  -42.5754   28.5063 H   0  0  0  0  0  0  0  0  0  0  0  0
  -14.7275  -45.6377   28.2279 H   0  0  0  0  0  0  0  0  0  0  0  0
  -13.7042  -44.4946   29.0947 H   0  0  0  0  0  0  0  0  0  0  0  0
  -13.2574  -45.1569   26.4065 H   0  0  0  0  0  0  0  0  0  0  0  0
  -11.9712  -43.0195   26.1168 H   0  0  0  0  0  0  0  0  0  0  0  0
  -11.6882  -43.6213   27.7515 H   0  0  0  0  0  0  0  0  0  0  0  0
  -12.8174  -42.2880   27.4850 H   0  0  0  0  0  0  0  0  0  0  0  0
  1  2  1  0  0  0  0
  1 22  1  0  0  0  0
  1 23  1  0  0  0  0
  1 24  1  0  0  0  0
  2  3  2  0  0  0  0
  2  7  1  0  0  0  0
  3  4  1  0  0  0  0
  3 25  1  0  0  0  0
  4  5  2  0  0  0  0
  4 26  1  0  0  0  0
  5  6  1  0  0  0  0
  5 27  1  0  0  0  0
  6  7  2  0  0  0  0
  6 11  1  0  0  0  0
  7  8  1  0  0  0  0
  8  9  2  0  0  0  0
  8 28  1  0  0  0  0
  9 10  1  0  0  0  0
  9 29  1  0  0  0  0
 10 11  2  0  0  0  0
 10 17  1  0  0  0  0
 11 12  1  0  0  0  0
 12 13  2  0  0  0  0
 12 14  1  0  0  0  0
 14 15  2  0  0  0  0
 14 16  1  0  0  0  0
 16 17  2  0  0  0  0
 16 20  1  0  0  0  0
 17 18  1  0  0  0  0
 18 19  1  0  0  0  0
 19 20  1  0  0  0  0
 19 30  1  0  0  0  0
 19 31  1  0  0  0  0
 20 21  1  0  0  0  0
 20 32  1  6  0  0  0
 21 33  1  0  0  0  0
 21 34  1  0  0  0  0
 21 35  1  0  0  0  0
M  END
$$$$
