1YY
 OpenBabel04111920143D

 66 69  0  0  1  0  0  0  0  0999 V2000
   38.3432  -20.1435   13.5196 C   0  0  0  0  0  0  0  0  0  0  0  0
   36.9791  -20.7268   13.9035 C   0  0  1  0  0  0  0  0  0  0  0  0
   35.8718  -20.3388   12.9207 C   0  0  0  0  0  0  0  0  0  0  0  0
   36.0326  -20.9220   11.6145 O   0  0  0  0  0  0  0  0  0  0  0  0
   36.2546  -22.3422   11.5928 C   0  0  0  0  0  0  0  0  0  0  0  0
   37.3755  -22.7282   12.5340 C   0  0  0  0  0  0  0  0  0  0  0  0
   37.0274  -22.2482   13.9189 N   0  3  1  0  0  0  0  0  0  0  0  0
   37.9953  -22.7382   14.9255 C   0  0  0  0  0  0  0  0  0  0  0  0
   37.5418  -23.9776   15.6880 C   0  0  1  0  0  0  0  0  0  0  0  0
   38.2156  -25.2395   15.1598 C   0  0  0  0  0  0  0  0  0  0  0  0
   39.6839  -25.0365   15.1265 N   0  0  0  0  0  0  0  0  0  0  0  0
   40.4845  -26.1823   14.2319 S   0  0  0  0  0  0  0  0  0  0  0  0
   41.8939  -26.1502   14.5486 O   0  0  0  0  0  0  0  0  0  0  0  0
   40.0346  -25.9870   12.8521 O   0  0  0  0  0  0  0  0  0  0  0  0
   39.8835  -27.7632   14.6908 C   0  0  0  0  0  0  0  0  0  0  0  0
   38.8770  -28.4674   14.0860 C   0  0  0  0  0  0  0  0  0  0  0  0
   38.6358  -29.6036   14.7524 C   0  0  0  0  0  0  0  0  0  0  0  0
   39.3925  -29.8887   15.8545 C   0  0  0  0  0  0  0  0  0  0  0  0
   40.4973  -28.5912   16.0626 S   0  0  0  0  0  0  0  0  0  0  0  0
   40.1569  -25.0238   16.5143 C   0  0  0  0  0  0  0  0  0  0  0  0
   39.4313  -23.9784   17.3427 C   0  0  0  0  0  0  0  0  0  0  0  0
   37.9921  -23.7780   17.0613 N   0  0  0  0  0  0  0  0  0  0  0  0
   37.3015  -22.9174   17.8962 C   0  0  0  0  0  0  0  0  0  0  0  0
   37.8089  -22.6223   19.1538 C   0  0  0  0  0  0  0  0  0  0  0  0
   37.1156  -21.8505   20.0284 C   0  0  0  0  0  0  0  0  0  0  0  0
   36.0711  -22.3648   17.5420 C   0  0  0  0  0  0  0  0  0  0  0  0
   35.3668  -21.5565   18.4072 C   0  0  0  0  0  0  0  0  0  0  0  0
   35.8898  -21.2870   19.6655 C   0  0  0  0  0  0  0  0  0  0  0  0
   35.1841  -20.3666   20.6215 C   0  0  1  0  0  0  0  0  0  0  0  0
   34.4870  -21.0959   21.7454 C   0  0  0  0  0  0  0  0  0  0  0  0
   33.7171  -20.2542   22.4701 F   0  0  0  0  0  0  0  0  0  0  0  0
   35.3879  -21.6676   22.5719 F   0  0  0  0  0  0  0  0  0  0  0  0
   33.6789  -22.0586   21.2298 F   0  0  0  0  0  0  0  0  0  0  0  0
   36.2571  -19.4909   21.2478 C   0  0  0  0  0  0  0  0  0  0  0  0
   34.2188  -19.5831   19.9102 O   0  0  0  0  0  0  0  0  0  0  0  0
   38.2896  -19.0540   13.5165 H   0  0  0  0  0  0  0  0  0  0  0  0
   38.6581  -20.4408   12.5184 H   0  0  0  0  0  0  0  0  0  0  0  0
   39.1255  -20.4466   14.2227 H   0  0  0  0  0  0  0  0  0  0  0  0
   36.7170  -20.4068   14.9184 H   0  0  0  0  0  0  0  0  0  0  0  0
   35.8858  -19.2508   12.8196 H   0  0  0  0  0  0  0  0  0  0  0  0
   34.9001  -20.6370   13.3318 H   0  0  0  0  0  0  0  0  0  0  0  0
   36.5426  -22.6455   10.5795 H   0  0  0  0  0  0  0  0  0  0  0  0
   35.3351  -22.8757   11.8578 H   0  0  0  0  0  0  0  0  0  0  0  0
   38.3079  -22.2433   12.2547 H   0  0  0  0  0  0  0  0  0  0  0  0
   37.5393  -23.8001   12.5893 H   0  0  0  0  0  0  0  0  0  0  0  0
   38.1715  -21.9121   15.6235 H   0  0  0  0  0  0  0  0  0  0  0  0
   38.9264  -22.9356   14.3989 H   0  0  0  0  0  0  0  0  0  0  0  0
   36.4522  -24.1276   15.6761 H   0  0  0  0  0  0  0  0  0  0  0  0
   37.8517  -25.4872   14.1647 H   0  0  0  0  0  0  0  0  0  0  0  0
   38.0297  -26.0807   15.8413 H   0  0  0  0  0  0  0  0  0  0  0  0
   38.3784  -28.1333   13.2005 H   0  0  0  0  0  0  0  0  0  0  0  0
   37.8566  -30.3409   14.3986 H   0  0  0  0  0  0  0  0  0  0  0  0
   39.3362  -30.7619   16.4989 H   0  0  0  0  0  0  0  0  0  0  0  0
   41.2285  -24.8238   16.5407 H   0  0  0  0  0  0  0  0  0  0  0  0
   39.9571  -26.0125   16.9269 H   0  0  0  0  0  0  0  0  0  0  0  0
   39.9584  -23.0281   17.2258 H   0  0  0  0  0  0  0  0  0  0  0  0
   39.4925  -24.3434   18.3621 H   0  0  0  0  0  0  0  0  0  0  0  0
   38.7543  -23.0218   19.4847 H   0  0  0  0  0  0  0  0  0  0  0  0
   37.5600  -21.6631   21.0025 H   0  0  0  0  0  0  0  0  0  0  0  0
   35.6310  -22.5610   16.5802 H   0  0  0  0  0  0  0  0  0  0  0  0
   34.4096  -21.1372   18.1082 H   0  0  0  0  0  0  0  0  0  0  0  0
   36.8040  -18.9639   20.4675 H   0  0  0  0  0  0  0  0  0  0  0  0
   36.9690  -20.1057   21.8113 H   0  0  0  0  0  0  0  0  0  0  0  0
   35.8254  -18.7919   21.9527 H   0  0  0  0  0  0  0  0  0  0  0  0
   34.6881  -19.1414   19.1759 H   0  0  0  0  0  0  0  0  0  0  0  0
   36.0807  -22.5827   14.1547 H   0  0  0  0  0  0  0  0  0  0  0  0
  1  2  1  0  0  0  0
  1 36  1  0  0  0  0
  1 37  1  0  0  0  0
  1 38  1  0  0  0  0
  2  3  1  0  0  0  0
  2  7  1  0  0  0  0
  2 39  1  1  0  0  0
  3  4  1  0  0  0  0
  3 40  1  0  0  0  0
  3 41  1  0  0  0  0
  4  5  1  0  0  0  0
  5  6  1  0  0  0  0
  5 42  1  0  0  0  0
  5 43  1  0  0  0  0
  6  7  1  0  0  0  0
  6 44  1  0  0  0  0
  6 45  1  0  0  0  0
  7  8  1  0  0  0  0
  7 66  1  1  0  0  0
  8  9  1  0  0  0  0
  8 46  1  0  0  0  0
  8 47  1  0  0  0  0
  9 10  1  0  0  0  0
  9 22  1  0  0  0  0
  9 48  1  6  0  0  0
 10 11  1  0  0  0  0
 10 49  1  0  0  0  0
 10 50  1  0  0  0  0
 11 12  1  0  0  0  0
 11 20  1  0  0  0  0
 12 13  2  0  0  0  0
 12 14  2  0  0  0  0
 12 15  1  0  0  0  0
 15 16  2  0  0  0  0
 15 19  1  0  0  0  0
 16 17  1  0  0  0  0
 16 51  1  0  0  0  0
 17 18  2  0  0  0  0
 17 52  1  0  0  0  0
 18 19  1  0  0  0  0
 18 53  1  0  0  0  0
 20 21  1  0  0  0  0
 20 54  1  0  0  0  0
 20 55  1  0  0  0  0
 21 22  1  0  0  0  0
 21 56  1  0  0  0  0
 21 57  1  0  0  0  0
 22 23  1  0  0  0  0
 23 24  2  0  0  0  0
 23 26  1  0  0  0  0
 24 25  1  0  0  0  0
 24 58  1  0  0  0  0
 25 28  2  0  0  0  0
 25 59  1  0  0  0  0
 26 27  2  0  0  0  0
 26 60  1  0  0  0  0
 27 28  1  0  0  0  0
 27 61  1  0  0  0  0
 29 28  1  6  0  0  0
 29 30  1  0  0  0  0
 29 34  1  0  0  0  0
 29 35  1  0  0  0  0
 30 31  1  0  0  0  0
 30 32  1  0  0  0  0
 30 33  1  0  0  0  0
 34 62  1  0  0  0  0
 34 63  1  0  0  0  0
 34 64  1  0  0  0  0
 35 65  1  0  0  0  0
M  CHG  1   7   1
M  END
$$$$
