1YZ
 OpenBabel04111920163D

 42 44  0  0  0  0  0  0  0  0999 V2000
   -4.8348    8.2171   13.2670 N   0  3  0  0  0  0  0  0  0  0  0  0
   -5.9399    7.5357   13.6877 N   0  0  0  0  0  0  0  0  0  0  0  0
   -5.4634    6.6246   14.5590 C   0  0  0  0  0  0  0  0  0  0  0  0
   -4.0490    6.7164   14.6871 C   0  0  0  0  0  0  0  0  0  0  0  0
   -3.6810    7.7241   13.8247 C   0  0  0  0  0  0  0  0  0  0  0  0
   -3.2445    5.9524   15.5294 N   0  0  0  0  0  0  0  0  0  0  0  0
   -1.8948    6.0994   15.6447 C   0  0  0  0  0  0  0  0  0  0  0  0
   -1.3185    5.3190   16.5919 N   0  0  0  0  0  0  0  0  0  0  0  0
   -1.1789    6.8592   14.9936 O   0  0  0  0  0  0  0  0  0  0  0  0
   -6.3227    5.6833   15.2891 C   0  0  0  0  0  0  0  0  0  0  0  0
   -7.6483    5.6897   14.9540 N   0  0  0  0  0  0  0  0  0  0  0  0
   -5.8901    4.9174   16.1479 O   0  0  0  0  0  0  0  0  0  0  0  0
   -4.9532    9.3254   12.3887 C   0  0  0  0  0  0  0  0  0  0  0  0
   -4.2488    9.3011   11.1796 C   0  0  0  0  0  0  0  0  0  0  0  0
   -4.3667   10.3677   10.2823 C   0  0  0  0  0  0  0  0  0  0  0  0
   -5.1574   11.4715   10.6011 C   0  0  0  0  0  0  0  0  0  0  0  0
   -5.7596   10.4459   12.7365 C   0  0  0  0  0  0  0  0  0  0  0  0
   -5.8311   11.5340   11.8264 C   0  0  0  0  0  0  0  0  0  0  0  0
   -6.5612   12.6846   12.1715 C   0  0  0  0  0  0  0  0  0  0  0  0
   -7.2078   12.7727   13.4010 C   0  0  0  0  0  0  0  0  0  0  0  0
   -7.1494   11.7115   14.2954 C   0  0  0  0  0  0  0  0  0  0  0  0
   -6.4350   10.5618   13.9644 C   0  0  0  0  0  0  0  0  0  0  0  0
   -7.8147   11.9188   15.4656 O   0  0  0  0  0  0  0  0  0  0  0  0
   -7.8146   10.8508   16.4087 C   0  0  0  0  0  0  0  0  0  0  0  0
   -8.4821   11.4006   17.6483 C   0  0  0  0  0  0  0  0  0  0  0  0
   -2.7153    8.1709   13.6221 H   0  0  0  0  0  0  0  0  0  0  0  0
   -3.7255    5.2410   16.0755 H   0  0  0  0  0  0  0  0  0  0  0  0
   -0.3189    5.4172   16.7279 H   0  0  0  0  0  0  0  0  0  0  0  0
   -1.8262    4.6859   17.1886 H   0  0  0  0  0  0  0  0  0  0  0  0
   -8.2710    5.0296   15.3973 H   0  0  0  0  0  0  0  0  0  0  0  0
   -7.9820    6.2921   14.2113 H   0  0  0  0  0  0  0  0  0  0  0  0
   -3.6488    8.4380   10.9075 H   0  0  0  0  0  0  0  0  0  0  0  0
   -3.8402   10.3446    9.3315 H   0  0  0  0  0  0  0  0  0  0  0  0
   -5.2320   12.2929    9.8876 H   0  0  0  0  0  0  0  0  0  0  0  0
   -6.6157   13.5333   11.4962 H   0  0  0  0  0  0  0  0  0  0  0  0
   -7.7547   13.6743   13.6661 H   0  0  0  0  0  0  0  0  0  0  0  0
   -6.3916    9.7456   14.6752 H   0  0  0  0  0  0  0  0  0  0  0  0
   -6.7937   10.5355   16.6585 H   0  0  0  0  0  0  0  0  0  0  0  0
   -8.3847    9.9979   16.0198 H   0  0  0  0  0  0  0  0  0  0  0  0
   -8.5355   10.6473   18.4358 H   0  0  0  0  0  0  0  0  0  0  0  0
   -9.4927   11.7466   17.4074 H   0  0  0  0  0  0  0  0  0  0  0  0
   -7.9258   12.2696   18.0166 H   0  0  0  0  0  0  0  0  0  0  0  0
  1  2  1  0  0  0  0
  1  5  2  0  0  0  0
  1 13  1  0  0  0  0
  2  3  1  0  0  0  0
  3  4  2  0  0  0  0
  3 10  1  0  0  0  0
  4  5  1  0  0  0  0
  4  6  1  0  0  0  0
  5 26  1  0  0  0  0
  6  7  1  0  0  0  0
  6 27  1  0  0  0  0
  7  8  1  0  0  0  0
  7  9  2  0  0  0  0
  8 28  1  0  0  0  0
  8 29  1  0  0  0  0
 10 11  1  0  0  0  0
 10 12  2  0  0  0  0
 11 30  1  0  0  0  0
 11 31  1  0  0  0  0
 13 14  2  0  0  0  0
 13 17  1  0  0  0  0
 14 15  1  0  0  0  0
 14 32  1  0  0  0  0
 15 16  2  0  0  0  0
 15 33  1  0  0  0  0
 16 18  1  0  0  0  0
 16 34  1  0  0  0  0
 17 18  2  0  0  0  0
 17 22  1  0  0  0  0
 18 19  1  0  0  0  0
 19 20  2  0  0  0  0
 19 35  1  0  0  0  0
 20 21  1  0  0  0  0
 20 36  1  0  0  0  0
 21 22  2  0  0  0  0
 21 23  1  0  0  0  0
 22 37  1  0  0  0  0
 23 24  1  0  0  0  0
 24 25  1  0  0  0  0
 24 38  1  0  0  0  0
 24 39  1  0  0  0  0
 25 40  1  0  0  0  0
 25 41  1  0  0  0  0
 25 42  1  0  0  0  0
M  CHG  1   1   1
M  END
$$$$
