21Q
 OpenBabel04111920143D

 55 56  0  0  1  0  0  0  0  0999 V2000
    4.7010    9.9964   23.9496 C   0  0  0  0  0  0  0  0  0  0  0  0
    4.1373    9.7724   22.5723 C   0  0  0  0  0  0  0  0  0  0  0  0
    5.2058    9.4687   21.5837 C   0  0  2  0  0  0  0  0  0  0  0  0
    6.6016    8.3486   20.2708 N   0  3  0  0  0  0  0  0  0  0  0  0
    5.5775    8.1965   21.1606 C   0  0  2  0  0  0  0  0  0  0  0  0
    5.0699    6.9021   21.4690 C   0  0  0  0  0  0  0  0  0  0  0  0
    3.7237    5.5669   23.0334 C   0  0  2  0  0  0  0  0  0  0  0  0
    3.4794    4.4748   22.2201 C   0  0  0  0  0  0  0  0  0  0  0  0
    2.8059    3.3890   22.7559 C   0  0  1  0  0  0  0  0  0  0  0  0
    2.3697    3.3916   24.0777 C   0  0  0  0  0  0  0  0  0  0  0  0
    2.6225    4.4769   24.8720 C   0  0  0  0  0  0  0  0  0  0  0  0
    3.3080    5.6292   24.3972 C   0  0  1  0  0  0  0  0  0  0  0  0
    3.5410    6.6151   25.1247 O   0  0  0  0  0  0  0  0  0  0  0  0
    0.5183    3.4478   20.5750 C   0  0  0  0  0  0  0  0  0  0  0  0
   -0.1875    1.2074   21.4251 C   0  0  0  0  0  0  0  0  0  0  0  0
    6.0931   11.8495   21.0162 C   0  0  0  0  0  0  0  0  0  0  0  0
    7.1196   12.5108   20.8160 O   0  0  0  0  0  0  0  0  0  0  0  0
    6.0766   10.3997   20.9114 C   0  0  2  0  0  0  0  0  0  0  0  0
    6.9199    9.6627   20.1217 C   0  0  2  0  0  0  0  0  0  0  0  0
    8.0080   10.0478   19.1988 C   0  0  0  0  0  0  0  0  0  0  0  0
    4.8342   12.5834   21.2959 C   0  0  0  0  0  0  0  0  0  0  0  0
    0.1284    2.9292   19.2067 C   0  0  0  0  0  0  0  0  0  0  0  0
    0.5384   -0.0723   21.1474 C   0  0  0  0  0  0  0  0  0  0  0  0
    4.3836    6.7433   22.6070 N   0  0  0  0  0  0  0  0  0  0  0  0
    0.7515    2.3279   21.5297 N   0  0  0  0  0  0  0  0  0  0  0  0
    5.3195    5.9978   20.6586 O   0  0  0  0  0  0  0  0  0  0  0  0
    3.0827    1.9059   20.5715 O   0  0  0  0  0  0  0  0  0  0  0  0
    2.5233    0.8776   22.7972 O   0  0  0  0  0  0  0  0  0  0  0  0
    2.4145    1.9811   21.8441 S   0  0  0  0  0  0  0  0  0  0  0  0
    3.9016   10.2346   24.6515 H   0  0  0  0  0  0  0  0  0  0  0  0
    5.4281   10.8168   23.9427 H   0  0  0  0  0  0  0  0  0  0  0  0
    5.2140    9.0929   24.2831 H   0  0  0  0  0  0  0  0  0  0  0  0
    3.5601   10.6341   22.3029 H   0  0  0  0  0  0  0  0  0  0  0  0
    3.3820    8.9931   22.5730 H   0  0  0  0  0  0  0  0  0  0  0  0
    7.0550    7.5759   19.8048 H   0  0  0  0  0  0  0  0  0  0  0  0
    3.7863    4.4611   21.1748 H   0  0  0  0  0  0  0  0  0  0  0  0
    1.8264    2.5295   24.4842 H   0  0  0  0  0  0  0  0  0  0  0  0
    2.2974    4.4876   25.9182 H   0  0  0  0  0  0  0  0  0  0  0  0
   -0.2744    4.0961   20.9646 H   0  0  0  0  0  0  0  0  0  0  0  0
    1.4229    4.0544   20.4628 H   0  0  0  0  0  0  0  0  0  0  0  0
   -0.7913    1.1449   22.3261 H   0  0  0  0  0  0  0  0  0  0  0  0
   -0.9011    1.3461   20.6249 H   0  0  0  0  0  0  0  0  0  0  0  0
    8.1431   11.1298   19.1767 H   0  0  0  0  0  0  0  0  0  0  0  0
    7.7743    9.7081   18.1853 H   0  0  0  0  0  0  0  0  0  0  0  0
    8.9450    9.5844   19.5193 H   0  0  0  0  0  0  0  0  0  0  0  0
    4.0128   11.9121   21.3823 H   0  0  0  0  0  0  0  0  0  0  0  0
    4.5703   13.2086   20.4520 H   0  0  0  0  0  0  0  0  0  0  0  0
    4.9225   13.1582   22.2103 H   0  0  0  0  0  0  0  0  0  0  0  0
   -0.0549    3.7468   18.5143 H   0  0  0  0  0  0  0  0  0  0  0  0
   -0.8074    2.3723   19.2394 H   0  0  0  0  0  0  0  0  0  0  0  0
    0.9056    2.2693   18.8164 H   0  0  0  0  0  0  0  0  0  0  0  0
   -0.1365   -0.9117   21.0662 H   0  0  0  0  0  0  0  0  0  0  0  0
    1.1755   -0.3200   21.9837 H   0  0  0  0  0  0  0  0  0  0  0  0
    1.1570    0.0182   20.2519 H   0  0  0  0  0  0  0  0  0  0  0  0
    4.3869    7.4798   23.3072 H   0  0  0  0  0  0  0  0  0  0  0  0
  1  2  1  0  0  0  0
  1 30  1  0  0  0  0
  1 31  1  0  0  0  0
  1 32  1  0  0  0  0
  2 33  1  0  0  0  0
  2 34  1  0  0  0  0
  3  2  1  1  0  0  0
  3  5  1  0  0  0  0
  3 18  1  0  0  0  0
  4  5  1  0  0  0  0
  4 19  1  0  0  0  0
  4 35  1  0  0  0  0
  5  6  1  6  0  0  0
  6 24  1  0  0  0  0
  6 26  2  0  0  0  0
  7  8  1  0  0  0  0
  7 12  1  0  0  0  0
  7 24  1  6  0  0  0
  8  9  1  0  0  0  0
  8 36  1  0  0  0  0
  9 10  1  0  0  0  0
  9 29  1  6  0  0  0
 10 11  1  0  0  0  0
 10 37  1  0  0  0  0
 11 12  1  0  0  0  0
 11 38  1  0  0  0  0
 12 13  1  1  0  0  0
 14 22  1  0  0  0  0
 14 25  1  0  0  0  0
 14 39  1  0  0  0  0
 14 40  1  0  0  0  0
 15 23  1  0  0  0  0
 15 25  1  0  0  0  0
 15 41  1  0  0  0  0
 15 42  1  0  0  0  0
 16 17  2  0  0  0  0
 16 21  1  0  0  0  0
 18 16  1  6  0  0  0
 18 19  1  0  0  0  0
 19 20  1  6  0  0  0
 20 43  1  0  0  0  0
 20 44  1  0  0  0  0
 20 45  1  0  0  0  0
 21 46  1  0  0  0  0
 21 47  1  0  0  0  0
 21 48  1  0  0  0  0
 22 49  1  0  0  0  0
 22 50  1  0  0  0  0
 22 51  1  0  0  0  0
 23 52  1  0  0  0  0
 23 53  1  0  0  0  0
 23 54  1  0  0  0  0
 24 55  1  0  0  0  0
 25 29  1  0  0  0  0
 27 29  2  0  0  0  0
 28 29  2  0  0  0  0
M  CHG  1   4   1
M  END
$$$$
