25G
 OpenBabel04111920583D

 61 65  0  0  0  0  0  0  0  0999 V2000
  -29.4905  -14.6872  -42.3165 C   0  0  0  0  0  0  0  0  0  0  0  0
  -29.3165  -20.8161  -42.9652 C   0  0  0  0  0  0  0  0  0  0  0  0
  -30.5376  -22.8671  -42.4430 C   0  0  0  0  0  0  0  0  0  0  0  0
  -29.5374  -23.6344  -43.0429 C   0  0  0  0  0  0  0  0  0  0  0  0
  -28.4116  -22.9990  -43.5756 C   0  0  0  0  0  0  0  0  0  0  0  0
  -25.9062  -20.6963  -43.0582 C   0  0  0  0  0  0  0  0  0  0  0  0
  -24.5625  -20.8059  -43.4473 C   0  0  0  0  0  0  0  0  0  0  0  0
  -25.1438  -19.9221  -40.8719 C   0  0  0  0  0  0  0  0  0  0  0  0
  -23.1221  -17.5573  -44.8512 C   0  0  0  0  0  0  0  0  0  0  0  0
  -23.7970  -16.8074  -43.7073 C   0  0  0  0  0  0  0  0  0  0  0  0
  -25.3161  -16.6670  -43.8996 C   0  0  0  0  0  0  0  0  0  0  0  0
  -25.6190  -16.0387  -45.2679 C   0  0  0  0  0  0  0  0  0  0  0  0
  -24.9902  -16.8366  -46.4050 C   0  0  0  0  0  0  0  0  0  0  0  0
  -23.4853  -16.9994  -46.2213 C   0  0  0  0  0  0  0  0  0  0  0  0
  -25.8958  -15.8098  -42.7593 C   0  0  0  0  0  0  0  0  0  0  0  0
  -27.4038  -15.8313  -42.6609 C   0  0  0  0  0  0  0  0  0  0  0  0
  -28.1085  -14.6459  -42.4853 C   0  0  0  0  0  0  0  0  0  0  0  0
  -30.1425  -15.9175  -42.3175 C   0  0  0  0  0  0  0  0  0  0  0  0
  -29.3763  -17.0615  -42.4944 C   0  0  0  0  0  0  0  0  0  0  0  0
  -28.0221  -17.0442  -42.6692 N   0  0  0  0  0  0  0  0  0  0  0  0
  -30.0255  -18.4257  -42.5068 C   0  0  0  0  0  0  0  0  0  0  0  0
  -31.2028  -18.5504  -42.1917 O   0  0  0  0  0  0  0  0  0  0  0  0
  -29.1544  -19.4135  -42.9147 N   0  0  0  0  0  0  0  0  0  0  0  0
  -28.2764  -21.5955  -43.5274 C   0  0  0  0  0  0  0  0  0  0  0  0
  -30.4371  -21.4636  -42.4267 C   0  0  0  0  0  0  0  0  0  0  0  0
  -26.9967  -20.9933  -44.0750 C   0  0  0  0  0  0  0  0  0  0  0  0
  -23.5285  -20.4990  -42.5571 C   0  0  0  0  0  0  0  0  0  0  0  0
  -26.1745  -20.2421  -41.7568 C   0  0  0  0  0  0  0  0  0  0  0  0
  -23.8192  -20.0575  -41.2692 C   0  0  0  0  0  0  0  0  0  0  0  0
  -29.6585  -25.1400  -43.1428 C   0  0  0  0  0  0  0  0  0  0  0  0
  -30.5136  -25.9001  -42.4137 N   0  0  0  0  0  0  0  0  0  0  0  0
  -28.9228  -25.8949  -44.0010 N   0  0  0  0  0  0  0  0  0  0  0  0
  -29.3691  -27.1591  -43.8213 N   0  0  0  0  0  0  0  0  0  0  0  0
  -30.2848  -27.1705  -42.8296 N   0  0  0  0  0  0  0  0  0  0  0  0
  -30.0557  -13.7684  -42.1818 H   0  0  0  0  0  0  0  0  0  0  0  0
  -31.4118  -23.3480  -42.0146 H   0  0  0  0  0  0  0  0  0  0  0  0
  -27.6228  -23.6096  -44.0116 H   0  0  0  0  0  0  0  0  0  0  0  0
  -24.3097  -21.1308  -44.4545 H   0  0  0  0  0  0  0  0  0  0  0  0
  -25.3866  -19.5761  -39.8710 H   0  0  0  0  0  0  0  0  0  0  0  0
  -23.4050  -18.6128  -44.8157 H   0  0  0  0  0  0  0  0  0  0  0  0
  -22.0349  -17.5188  -44.7156 H   0  0  0  0  0  0  0  0  0  0  0  0
  -23.3442  -15.8123  -43.6163 H   0  0  0  0  0  0  0  0  0  0  0  0
  -23.5921  -17.3297  -42.7658 H   0  0  0  0  0  0  0  0  0  0  0  0
  -25.7583  -17.6713  -43.8718 H   0  0  0  0  0  0  0  0  0  0  0  0
  -25.2354  -15.0104  -45.2962 H   0  0  0  0  0  0  0  0  0  0  0  0
  -26.7016  -15.9783  -45.4290 H   0  0  0  0  0  0  0  0  0  0  0  0
  -25.1870  -16.3303  -47.3567 H   0  0  0  0  0  0  0  0  0  0  0  0
  -25.4646  -17.8238  -46.4631 H   0  0  0  0  0  0  0  0  0  0  0  0
  -23.0939  -17.6660  -46.9984 H   0  0  0  0  0  0  0  0  0  0  0  0
  -22.9949  -16.0284  -46.3577 H   0  0  0  0  0  0  0  0  0  0  0  0
  -25.5526  -14.7773  -42.8883 H   0  0  0  0  0  0  0  0  0  0  0  0
  -25.4965  -16.1487  -41.7922 H   0  0  0  0  0  0  0  0  0  0  0  0
  -27.5910  -13.6900  -42.4737 H   0  0  0  0  0  0  0  0  0  0  0  0
  -31.2167  -15.9840  -42.1846 H   0  0  0  0  0  0  0  0  0  0  0  0
  -28.2456  -19.0396  -43.1783 H   0  0  0  0  0  0  0  0  0  0  0  0
  -31.2449  -20.9009  -41.9645 H   0  0  0  0  0  0  0  0  0  0  0  0
  -26.5964  -21.6776  -44.8351 H   0  0  0  0  0  0  0  0  0  0  0  0
  -27.2250  -20.0763  -44.6318 H   0  0  0  0  0  0  0  0  0  0  0  0
  -22.4945  -20.5969  -42.8752 H   0  0  0  0  0  0  0  0  0  0  0  0
  -27.1915  -20.1379  -41.3921 H   0  0  0  0  0  0  0  0  0  0  0  0
  -23.0185  -19.8217  -40.5757 H   0  0  0  0  0  0  0  0  0  0  0  0
  1 17  2  0  0  0  0
  1 18  1  0  0  0  0
  1 35  1  0  0  0  0
  2 23  1  0  0  0  0
  2 24  2  0  0  0  0
  2 25  1  0  0  0  0
  3  4  1  0  0  0  0
  3 25  2  0  0  0  0
  3 36  1  0  0  0  0
  4  5  2  0  0  0  0
  4 30  1  0  0  0  0
  5 24  1  0  0  0  0
  5 37  1  0  0  0  0
  6  7  2  0  0  0  0
  6 26  1  0  0  0  0
  6 28  1  0  0  0  0
  7 27  1  0  0  0  0
  7 38  1  0  0  0  0
  8 28  2  0  0  0  0
  8 29  1  0  0  0  0
  8 39  1  0  0  0  0
  9 10  1  0  0  0  0
  9 14  1  0  0  0  0
  9 40  1  0  0  0  0
  9 41  1  0  0  0  0
 10 11  1  0  0  0  0
 10 42  1  0  0  0  0
 10 43  1  0  0  0  0
 11 12  1  0  0  0  0
 11 15  1  0  0  0  0
 11 44  1  0  0  0  0
 12 13  1  0  0  0  0
 12 45  1  0  0  0  0
 12 46  1  0  0  0  0
 13 14  1  0  0  0  0
 13 47  1  0  0  0  0
 13 48  1  0  0  0  0
 14 49  1  0  0  0  0
 14 50  1  0  0  0  0
 15 16  1  0  0  0  0
 15 51  1  0  0  0  0
 15 52  1  0  0  0  0
 16 17  1  0  0  0  0
 16 20  2  0  0  0  0
 17 53  1  0  0  0  0
 18 19  2  0  0  0  0
 18 54  1  0  0  0  0
 19 20  1  0  0  0  0
 19 21  1  0  0  0  0
 21 22  2  0  0  0  0
 21 23  1  0  0  0  0
 23 55  1  0  0  0  0
 24 26  1  0  0  0  0
 25 56  1  0  0  0  0
 26 57  1  0  0  0  0
 26 58  1  0  0  0  0
 27 29  2  0  0  0  0
 27 59  1  0  0  0  0
 28 60  1  0  0  0  0
 29 61  1  0  0  0  0
 30 31  1  0  0  0  0
 30 32  2  0  0  0  0
 31 34  1  0  0  0  0
 32 33  1  0  0  0  0
 33 34  2  0  0  0  0
M  END
$$$$
