27N
 OpenBabel04111920233D

 30 31  0  0  0  0  0  0  0  0999 V2000
   -3.0343   -3.6982   20.0774 C   0  0  0  0  0  0  0  0  0  0  0  0
   -1.7710   -3.4166   19.5771 C   0  0  0  0  0  0  0  0  0  0  0  0
   -0.7886   -2.9488   20.4435 C   0  0  0  0  0  0  0  0  0  0  0  0
    0.4567   -2.6390   20.0004 O   0  0  0  0  0  0  0  0  0  0  0  0
   -1.0485   -2.7777   21.7961 C   0  0  0  0  0  0  0  0  0  0  0  0
   -2.2974   -3.0976   22.2968 C   0  0  0  0  0  0  0  0  0  0  0  0
   -3.3120   -3.5383   21.4358 C   0  0  0  0  0  0  0  0  0  0  0  0
   -4.6396   -3.8992   22.0654 C   0  0  0  0  0  0  0  0  0  0  0  0
   -5.5812   -2.7152   22.4623 C   0  0  0  0  0  0  0  0  0  0  0  0
   -6.0246   -1.6225   21.0973 Cl  0  0  0  0  0  0  0  0  0  0  0  0
   -7.0787   -3.3861   23.2433 Cl  0  0  0  0  0  0  0  0  0  0  0  0
   -4.8388   -1.6385   23.7049 Cl  0  0  0  0  0  0  0  0  0  0  0  0
   -5.3195   -5.0144   21.2966 C   0  0  0  0  0  0  0  0  0  0  0  0
   -4.8544   -6.3250   21.4665 C   0  0  0  0  0  0  0  0  0  0  0  0
   -5.4725   -7.3524   20.7865 C   0  0  0  0  0  0  0  0  0  0  0  0
   -6.5310   -7.0901   19.9417 C   0  0  0  0  0  0  0  0  0  0  0  0
   -7.1321   -8.1341   19.2901 O   0  0  0  0  0  0  0  0  0  0  0  0
   -6.9980   -5.8084   19.7306 C   0  0  0  0  0  0  0  0  0  0  0  0
   -6.3669   -4.7704   20.4014 C   0  0  0  0  0  0  0  0  0  0  0  0
   -3.7917   -4.0758   19.3843 H   0  0  0  0  0  0  0  0  0  0  0  0
   -1.5663   -3.5408   18.5163 H   0  0  0  0  0  0  0  0  0  0  0  0
    0.7983   -3.4333   19.5558 H   0  0  0  0  0  0  0  0  0  0  0  0
   -0.2716   -2.4085   22.4705 H   0  0  0  0  0  0  0  0  0  0  0  0
   -2.4737   -3.0044   23.3669 H   0  0  0  0  0  0  0  0  0  0  0  0
   -4.3707   -4.3806   23.0229 H   0  0  0  0  0  0  0  0  0  0  0  0
   -4.0094   -6.5139   22.1218 H   0  0  0  0  0  0  0  0  0  0  0  0
   -5.1197   -8.3926   20.9232 H   0  0  0  0  0  0  0  0  0  0  0  0
   -7.8494   -7.7803   18.7473 H   0  0  0  0  0  0  0  0  0  0  0  0
   -7.8265   -5.5798   19.0818 H   0  0  0  0  0  0  0  0  0  0  0  0
   -6.7640   -3.7782   20.2086 H   0  0  0  0  0  0  0  0  0  0  0  0
  1  2  2  0  0  0  0
  1  7  1  0  0  0  0
  1 20  1  0  0  0  0
  2  3  1  0  0  0  0
  2 21  1  0  0  0  0
  3  4  1  0  0  0  0
  3  5  2  0  0  0  0
  4 22  1  0  0  0  0
  5  6  1  0  0  0  0
  5 23  1  0  0  0  0
  6  7  2  0  0  0  0
  6 24  1  0  0  0  0
  7  8  1  0  0  0  0
  8  9  1  0  0  0  0
  8 13  1  0  0  0  0
  8 25  1  0  0  0  0
  9 10  1  0  0  0  0
  9 11  1  0  0  0  0
  9 12  1  0  0  0  0
 13 14  2  0  0  0  0
 13 19  1  0  0  0  0
 14 15  1  0  0  0  0
 14 26  1  0  0  0  0
 15 16  2  0  0  0  0
 15 27  1  0  0  0  0
 16 17  1  0  0  0  0
 16 18  1  0  0  0  0
 17 28  1  0  0  0  0
 18 19  2  0  0  0  0
 18 29  1  0  0  0  0
 19 30  1  0  0  0  0
M  END
$$$$
