27O
 OpenBabel04111920243D

 42 44  0  0  1  0  0  0  0  0999 V2000
  -19.1107  -18.2356   45.9486 C   0  0  0  0  0  0  0  0  0  0  0  0
  -18.2309  -17.2218   45.5807 C   0  0  0  0  0  0  0  0  0  0  0  0
  -17.5595  -17.2547   44.3492 C   0  0  0  0  0  0  0  0  0  0  0  0
  -16.5728  -16.1282   43.9872 C   0  0  0  0  0  0  0  0  0  0  0  0
  -15.1403  -16.6396   44.1679 C   0  0  0  0  0  0  0  0  0  0  0  0
  -14.3665  -14.1467   44.0965 C   0  0  0  0  0  0  0  0  0  0  0  0
  -17.7743  -18.3708   43.4762 C   0  0  0  0  0  0  0  0  0  0  0  0
  -17.3307  -19.5621   41.3693 C   0  0  0  0  0  0  0  0  0  0  0  0
  -18.8642  -20.5092   42.9643 C   0  0  0  0  0  0  0  0  0  0  0  0
  -22.0405  -21.1692   44.0822 O   0  0  0  0  0  0  0  0  0  0  0  0
  -21.7724  -20.2634   44.9208 C   0  0  0  0  0  0  0  0  0  0  0  0
  -22.4676  -19.3201   45.3716 O   0  0  0  0  0  0  0  0  0  0  0  0
  -20.3413  -20.4334   45.5624 C   0  0  2  0  0  0  0  0  0  0  0  0
  -20.4995  -20.5238   47.0814 C   0  0  0  0  0  0  0  0  0  0  0  0
  -19.3566  -19.3417   45.1135 C   0  0  0  0  0  0  0  0  0  0  0  0
  -18.6773  -19.4217   43.8596 C   0  0  0  0  0  0  0  0  0  0  0  0
  -18.2061  -20.5719   41.7347 C   0  0  0  0  0  0  0  0  0  0  0  0
  -17.1189  -18.4800   42.2253 C   0  0  0  0  0  0  0  0  0  0  0  0
  -16.7278  -14.8404   44.7975 C   0  0  0  0  0  0  0  0  0  0  0  0
  -15.8231  -13.7429   44.2525 C   0  0  0  0  0  0  0  0  0  0  0  0
  -14.0379  -15.6064   44.3594 C   0  0  0  0  0  0  0  0  0  0  0  0
  -19.6160  -18.1370   46.9089 H   0  0  0  0  0  0  0  0  0  0  0  0
  -18.0896  -16.4050   46.2846 H   0  0  0  0  0  0  0  0  0  0  0  0
  -16.7378  -15.8600   42.9335 H   0  0  0  0  0  0  0  0  0  0  0  0
  -14.8769  -17.2552   43.3066 H   0  0  0  0  0  0  0  0  0  0  0  0
  -15.1228  -17.3019   45.0443 H   0  0  0  0  0  0  0  0  0  0  0  0
  -13.7595  -13.5318   44.7765 H   0  0  0  0  0  0  0  0  0  0  0  0
  -14.0394  -13.8914   43.0808 H   0  0  0  0  0  0  0  0  0  0  0  0
  -16.8142  -19.6148   40.4156 H   0  0  0  0  0  0  0  0  0  0  0  0
  -19.5483  -21.3250   43.2039 H   0  0  0  0  0  0  0  0  0  0  0  0
  -19.9152  -21.4040   45.2657 H   0  0  0  0  0  0  0  0  0  0  0  0
  -21.1923  -21.3245   47.3602 H   0  0  0  0  0  0  0  0  0  0  0  0
  -20.9019  -19.5947   47.4934 H   0  0  0  0  0  0  0  0  0  0  0  0
  -19.5330  -20.7203   47.5637 H   0  0  0  0  0  0  0  0  0  0  0  0
  -18.3880  -21.4098   41.0615 H   0  0  0  0  0  0  0  0  0  0  0  0
  -16.4251  -17.7160   41.8837 H   0  0  0  0  0  0  0  0  0  0  0  0
  -16.4540  -15.0228   45.8419 H   0  0  0  0  0  0  0  0  0  0  0  0
  -17.7620  -14.4936   44.7626 H   0  0  0  0  0  0  0  0  0  0  0  0
  -16.2008  -13.4304   43.2714 H   0  0  0  0  0  0  0  0  0  0  0  0
  -15.8842  -12.8721   44.9153 H   0  0  0  0  0  0  0  0  0  0  0  0
  -13.1961  -15.8884   43.7135 H   0  0  0  0  0  0  0  0  0  0  0  0
  -13.6757  -15.6900   45.3923 H   0  0  0  0  0  0  0  0  0  0  0  0
  1  2  2  0  0  0  0
  1 15  1  0  0  0  0
  1 22  1  0  0  0  0
  2  3  1  0  0  0  0
  2 23  1  0  0  0  0
  3  4  1  0  0  0  0
  3  7  2  0  0  0  0
  4  5  1  0  0  0  0
  4 19  1  0  0  0  0
  4 24  1  0  0  0  0
  5 21  1  0  0  0  0
  5 25  1  0  0  0  0
  5 26  1  0  0  0  0
  6 20  1  0  0  0  0
  6 21  1  0  0  0  0
  6 27  1  0  0  0  0
  6 28  1  0  0  0  0
  7 16  1  0  0  0  0
  7 18  1  0  0  0  0
  8 17  1  0  0  0  0
  8 18  2  0  0  0  0
  8 29  1  0  0  0  0
  9 16  1  0  0  0  0
  9 17  2  0  0  0  0
  9 30  1  0  0  0  0
 10 11  2  0  0  0  0
 11 12  1  0  0  0  0
 11 13  1  0  0  0  0
 13 14  1  0  0  0  0
 13 15  1  0  0  0  0
 13 31  1  6  0  0  0
 14 32  1  0  0  0  0
 14 33  1  0  0  0  0
 14 34  1  0  0  0  0
 15 16  2  0  0  0  0
 17 35  1  0  0  0  0
 18 36  1  0  0  0  0
 19 20  1  0  0  0  0
 19 37  1  0  0  0  0
 19 38  1  0  0  0  0
 20 39  1  0  0  0  0
 20 40  1  0  0  0  0
 21 41  1  0  0  0  0
 21 42  1  0  0  0  0
M  END
$$$$
