29V
 OpenBabel04111920213D

 46 47  0  0  1  0  0  0  0  0999 V2000
   64.8672   48.6888   35.0324 C   0  0  0  0  0  0  0  0  0  0  0  0
   64.2637   49.3163   32.7022 C   0  0  0  0  0  0  0  0  0  0  0  0
   64.0729   48.8512   31.2677 C   0  0  0  0  0  0  0  0  0  0  0  0
   65.3251   47.7280   29.4085 C   0  0  0  0  0  0  0  0  0  0  0  0
   65.9174   47.4714   33.0812 C   0  0  0  0  0  0  0  0  0  0  0  0
   66.1321   47.3628   31.6971 C   0  0  0  0  0  0  0  0  0  0  0  0
   66.8756   46.9338   33.9578 C   0  0  0  0  0  0  0  0  0  0  0  0
   68.2493   46.2053   32.1478 C   0  0  0  0  0  0  0  0  0  0  0  0
   64.6653   48.1527   33.6147 C   0  0  1  0  0  0  0  0  0  0  0  0
   68.0357   46.3248   33.4981 C   0  0  0  0  0  0  0  0  0  0  0  0
   67.3021   46.7077   31.2617 C   0  0  0  0  0  0  0  0  0  0  0  0
   65.1777   47.9607   30.7280 C   0  0  0  0  0  0  0  0  0  0  0  0
   64.5497   48.2726   28.3239 C   0  0  0  0  0  0  0  0  0  0  0  0
   65.3285   49.0342   27.2893 C   0  0  0  0  0  0  0  0  0  0  0  0
   63.2181   48.1157   28.1563 C   0  0  0  0  0  0  0  0  0  0  0  0
   62.2404   47.3969   28.9606 C   0  0  0  0  0  0  0  0  0  0  0  0
   60.9459   47.4734   28.6295 C   0  0  0  0  0  0  0  0  0  0  0  0
   59.7895   46.8925   29.3140 C   0  0  0  0  0  0  0  0  0  0  0  0
   60.0538   45.9272   30.4459 C   0  0  0  0  0  0  0  0  0  0  0  0
   58.5460   47.2249   28.9053 C   0  0  0  0  0  0  0  0  0  0  0  0
   57.2310   46.6936   29.5140 C   0  0  0  0  0  0  0  0  0  0  0  0
   56.2715   47.5110   29.4369 O   0  0  0  0  0  0  0  0  0  0  0  0
   57.2334   45.5250   29.9810 O   0  0  0  0  0  0  0  0  0  0  0  0
   63.9723   49.1891   35.4081 H   0  0  0  0  0  0  0  0  0  0  0  0
   65.7051   49.3966   35.0579 H   0  0  0  0  0  0  0  0  0  0  0  0
   65.0853   47.8763   35.7322 H   0  0  0  0  0  0  0  0  0  0  0  0
   63.3271   49.7648   33.0578 H   0  0  0  0  0  0  0  0  0  0  0  0
   65.0256   50.1058   32.7277 H   0  0  0  0  0  0  0  0  0  0  0  0
   63.9708   49.7379   30.6319 H   0  0  0  0  0  0  0  0  0  0  0  0
   63.1178   48.3201   31.2396 H   0  0  0  0  0  0  0  0  0  0  0  0
   66.1308   47.1027   29.0357 H   0  0  0  0  0  0  0  0  0  0  0  0
   66.7550   47.0011   35.0332 H   0  0  0  0  0  0  0  0  0  0  0  0
   69.1462   45.7393   31.7588 H   0  0  0  0  0  0  0  0  0  0  0  0
   63.8518   47.4142   33.6323 H   0  0  0  0  0  0  0  0  0  0  0  0
   68.7676   45.9489   34.2066 H   0  0  0  0  0  0  0  0  0  0  0  0
   67.5367   46.5826   30.2124 H   0  0  0  0  0  0  0  0  0  0  0  0
   64.6758   49.4187   26.4933 H   0  0  0  0  0  0  0  0  0  0  0  0
   66.0849   48.4029   26.7926 H   0  0  0  0  0  0  0  0  0  0  0  0
   65.8415   49.9025   27.7225 H   0  0  0  0  0  0  0  0  0  0  0  0
   62.7969   48.5923   27.2975 H   0  0  0  0  0  0  0  0  0  0  0  0
   62.5620   46.8646   29.8398 H   0  0  0  0  0  0  0  0  0  0  0  0
   60.6833   48.0526   27.7471 H   0  0  0  0  0  0  0  0  0  0  0  0
   59.1556   45.5602   30.9351 H   0  0  0  0  0  0  0  0  0  0  0  0
   60.6214   46.4005   31.2496 H   0  0  0  0  0  0  0  0  0  0  0  0
   60.5798   45.0501   30.0781 H   0  0  0  0  0  0  0  0  0  0  0  0
   58.3895   47.9408   28.1075 H   0  0  0  0  0  0  0  0  0  0  0  0
  1  9  1  0  0  0  0
  1 24  1  0  0  0  0
  1 25  1  0  0  0  0
  1 26  1  0  0  0  0
  2  3  1  0  0  0  0
  2  9  1  0  0  0  0
  2 27  1  0  0  0  0
  2 28  1  0  0  0  0
  3 12  1  0  0  0  0
  3 29  1  0  0  0  0
  3 30  1  0  0  0  0
  4 12  2  0  0  0  0
  4 13  1  0  0  0  0
  4 31  1  0  0  0  0
  5  6  2  0  0  0  0
  5  7  1  0  0  0  0
  5  9  1  0  0  0  0
  6 11  1  0  0  0  0
  6 12  1  0  0  0  0
  7 10  2  0  0  0  0
  7 32  1  0  0  0  0
  8 10  1  0  0  0  0
  8 11  2  0  0  0  0
  8 33  1  0  0  0  0
  9 34  1  1  0  0  0
 10 35  1  0  0  0  0
 11 36  1  0  0  0  0
 13 14  1  0  0  0  0
 13 15  2  0  0  0  0
 14 37  1  0  0  0  0
 14 38  1  0  0  0  0
 14 39  1  0  0  0  0
 15 16  1  0  0  0  0
 15 40  1  0  0  0  0
 16 17  2  0  0  0  0
 16 41  1  0  0  0  0
 17 18  1  0  0  0  0
 17 42  1  0  0  0  0
 18 19  1  0  0  0  0
 18 20  2  0  0  0  0
 19 43  1  0  0  0  0
 19 44  1  0  0  0  0
 19 45  1  0  0  0  0
 20 21  1  0  0  0  0
 20 46  1  0  0  0  0
 21 22  2  0  0  0  0
 21 23  1  0  0  0  0
M  END
$$$$
