2AK
 OpenBabel04111919583D

 19 20  0  0  0  0  0  0  0  0999 V2000
    3.9200  -26.9453   49.1441 Br  0  0  0  0  0  0  0  0  0  0  0  0
    2.0646  -27.2517   49.2973 C   0  0  0  0  0  0  0  0  0  0  0  0
    1.3350  -26.6128   50.3085 C   0  0  0  0  0  0  0  0  0  0  0  0
   -0.0576  -26.8220   50.4452 C   0  0  0  0  0  0  0  0  0  0  0  0
   -0.8119  -26.1191   51.5369 C   0  0  0  0  0  0  0  0  0  0  0  0
   -0.7307  -27.6790   49.5622 C   0  0  0  0  0  0  0  0  0  0  0  0
    1.3877  -28.0944   48.4342 C   0  0  0  0  0  0  0  0  0  0  0  0
    1.8911  -28.8341   47.3614 N   0  0  0  0  0  0  0  0  0  0  0  0
    0.8929  -29.5568   46.7431 C   0  0  0  0  0  0  0  0  0  0  0  0
    0.9868  -30.2946   45.7919 O   0  0  0  0  0  0  0  0  0  0  0  0
   -0.4044  -29.2276   47.5260 C   0  0  0  0  0  0  0  0  0  0  0  0
    0.0158  -28.2939   48.5773 C   0  0  0  0  0  0  0  0  0  0  0  0
   -1.5182  -29.6461   47.3119 O   0  0  0  0  0  0  0  0  0  0  0  0
    1.8416  -25.9412   51.0021 H   0  0  0  0  0  0  0  0  0  0  0  0
   -1.8750  -26.3796   51.5117 H   0  0  0  0  0  0  0  0  0  0  0  0
   -0.7279  -25.0346   51.4149 H   0  0  0  0  0  0  0  0  0  0  0  0
   -0.4167  -26.4076   52.5160 H   0  0  0  0  0  0  0  0  0  0  0  0
   -1.7993  -27.8567   49.6413 H   0  0  0  0  0  0  0  0  0  0  0  0
    2.8529  -28.8590   47.0557 H   0  0  0  0  0  0  0  0  0  0  0  0
  1  2  1  0  0  0  0
  2  3  2  0  0  0  0
  2  7  1  0  0  0  0
  3  4  1  0  0  0  0
  3 14  1  0  0  0  0
  4  5  1  0  0  0  0
  4  6  2  0  0  0  0
  5 15  1  0  0  0  0
  5 16  1  0  0  0  0
  5 17  1  0  0  0  0
  6 12  1  0  0  0  0
  6 18  1  0  0  0  0
  7  8  1  0  0  0  0
  7 12  2  0  0  0  0
  8  9  1  0  0  0  0
  8 19  1  0  0  0  0
  9 10  2  0  0  0  0
  9 11  1  0  0  0  0
 11 12  1  0  0  0  0
 11 13  2  0  0  0  0
M  END
$$$$
