2B4
 OpenBabel04111917433D

 20 20  0  0  0  0  0  0  0  0999 V2000
   14.9248  -15.3392    9.9583 C   0  0  0  0  0  0  0  0  0  0  0  0
   12.9174  -14.3642    9.0067 C   0  0  0  0  0  0  0  0  0  0  0  0
   15.7002  -14.5802    9.0866 C   0  0  0  0  0  0  0  0  0  0  0  0
   13.6835  -13.6158    8.1268 C   0  0  0  0  0  0  0  0  0  0  0  0
   13.5395  -15.2335    9.9157 C   0  0  0  0  0  0  0  0  0  0  0  0
   15.0744  -13.7176    8.1759 C   0  0  0  0  0  0  0  0  0  0  0  0
   12.9340  -18.1140    9.7122 C   0  0  0  0  0  0  0  0  0  0  0  0
   11.8144  -17.8339   11.9123 C   0  0  0  0  0  0  0  0  0  0  0  0
   12.9490  -17.2968   11.0149 C   0  0  0  0  0  0  0  0  0  0  0  0
   12.0913  -17.8052    8.8156 O   0  0  0  0  0  0  0  0  0  0  0  0
   12.0231  -18.9304   12.5247 O   0  0  0  0  0  0  0  0  0  0  0  0
   13.9108  -18.9258    9.5711 O   0  0  0  0  0  0  0  0  0  0  0  0
   10.8286  -17.0480   12.1312 O   0  0  0  0  0  0  0  0  0  0  0  0
   12.7162  -15.8742   10.7864 O   0  0  0  0  0  0  0  0  0  0  0  0
   16.1353  -12.7025    6.9911 Br  0  0  0  0  0  0  0  0  0  0  0  0
   15.3970  -16.0054   10.6685 H   0  0  0  0  0  0  0  0  0  0  0  0
   11.8273  -14.3214    8.9861 H   0  0  0  0  0  0  0  0  0  0  0  0
   16.7815  -14.6644    9.1234 H   0  0  0  0  0  0  0  0  0  0  0  0
   13.1927  -12.9668    7.4031 H   0  0  0  0  0  0  0  0  0  0  0  0
   13.9046  -17.4325   11.5416 H   0  0  0  0  0  0  0  0  0  0  0  0
  1  3  2  0  0  0  0
  1  5  1  0  0  0  0
  1 16  1  0  0  0  0
  2  4  1  0  0  0  0
  2  5  2  0  0  0  0
  2 17  1  0  0  0  0
  3  6  1  0  0  0  0
  3 18  1  0  0  0  0
  4  6  2  0  0  0  0
  4 19  1  0  0  0  0
  5 14  1  0  0  0  0
  6 15  1  0  0  0  0
  7  9  1  0  0  0  0
  7 10  2  0  0  0  0
  7 12  1  0  0  0  0
  8  9  1  0  0  0  0
  8 11  2  0  0  0  0
  8 13  1  0  0  0  0
  9 14  1  0  0  0  0
  9 20  1  0  0  0  0
M  END
$$$$
