2BA
 OpenBabel04111918273D

 66 72  0  0  1  0  0  0  0  0999 V2000
   -8.6807   -7.6034   -9.5054 P   0  0  1  0  0  0  0  0  0  0  0  0
   -8.0588   -8.3789   -8.3722 O   0  0  0  0  0  0  0  0  0  0  0  0
   -8.5274   -6.1098   -9.6370 O   0  0  0  0  0  0  0  0  0  0  0  0
   -8.2176   -8.2979  -10.8891 O   0  0  0  0  0  0  0  0  0  0  0  0
   -8.4278   -7.6410  -12.1270 C   0  0  0  0  0  0  0  0  0  0  0  0
   -7.7892   -8.4855  -13.2339 C   0  0  1  0  0  0  0  0  0  0  0  0
   -6.3453   -8.4385  -13.0852 O   0  0  0  0  0  0  0  0  0  0  0  0
   -8.1849   -9.9587  -13.1767 C   0  0  1  0  0  0  0  0  0  0  0  0
   -9.4208  -10.1774  -13.8355 O   0  0  0  0  0  0  0  0  0  0  0  0
   -6.9801  -10.6385  -13.8284 C   0  0  1  0  0  0  0  0  0  0  0  0
   -7.0349  -10.5593  -15.2690 O   0  0  0  0  0  0  0  0  0  0  0  0
   -5.8302   -9.7589  -13.3448 C   0  0  2  0  0  0  0  0  0  0  0  0
   -5.1104  -10.2483  -12.1811 N   0  3  0  0  0  0  0  0  0  0  0  0
   -5.2409   -9.8584  -10.8746 C   0  0  0  0  0  0  0  0  0  0  0  0
   -4.3439  -10.4320  -10.0942 N   0  0  0  0  0  0  0  0  0  0  0  0
   -3.6041  -11.2246  -10.9344 C   0  0  0  0  0  0  0  0  0  0  0  0
   -2.4931  -12.0532  -10.7013 C   0  0  0  0  0  0  0  0  0  0  0  0
   -1.8985  -12.1811   -9.4484 N   0  0  0  0  0  0  0  0  0  0  0  0
   -1.9689  -12.7396  -11.7431 N   0  0  0  0  0  0  0  0  0  0  0  0
   -2.5252  -12.5560  -12.9623 C   0  0  0  0  0  0  0  0  0  0  0  0
   -3.5670  -11.7684  -13.3138 N   0  0  0  0  0  0  0  0  0  0  0  0
   -4.0647  -11.1365  -12.2384 C   0  0  0  0  0  0  0  0  0  0  0  0
  -10.2867  -11.4626  -13.3307 P   0  0  2  0  0  0  0  0  0  0  0  0
   -9.3511  -12.6329  -13.1858 O   0  0  0  0  0  0  0  0  0  0  0  0
  -11.5442  -11.5393  -14.1667 O   0  0  0  0  0  0  0  0  0  0  0  0
  -10.6878  -10.9478  -11.8421 O   0  0  0  0  0  0  0  0  0  0  0  0
  -11.5805   -9.8523  -11.7280 C   0  0  0  0  0  0  0  0  0  0  0  0
  -11.8819   -9.5834  -10.2560 C   0  0  1  0  0  0  0  0  0  0  0  0
  -12.5709  -10.7149   -9.6760 O   0  0  0  0  0  0  0  0  0  0  0  0
  -10.6398   -9.3249   -9.4126 C   0  0  1  0  0  0  0  0  0  0  0  0
  -10.2586   -7.9658   -9.5429 O   0  0  0  0  0  0  0  0  0  0  0  0
  -11.1217   -9.7233   -8.0207 C   0  0  1  0  0  0  0  0  0  0  0  0
  -11.8841   -8.6638   -7.4002 O   0  0  0  0  0  0  0  0  0  0  0  0
  -12.0850  -10.8830   -8.3292 C   0  0  2  0  0  0  0  0  0  0  0  0
  -11.5518  -12.2234   -8.1849 N   0  3  0  0  0  0  0  0  0  0  0  0
  -10.7121  -12.8820   -9.0456 C   0  0  0  0  0  0  0  0  0  0  0  0
  -10.4496  -14.1087   -8.6420 N   0  0  0  0  0  0  0  0  0  0  0  0
  -11.1806  -14.2644   -7.4912 C   0  0  0  0  0  0  0  0  0  0  0  0
  -11.3283  -15.3565   -6.6190 C   0  0  0  0  0  0  0  0  0  0  0  0
  -10.6546  -16.5497   -6.7970 N   0  0  0  0  0  0  0  0  0  0  0  0
  -12.1489  -15.2257   -5.5516 N   0  0  0  0  0  0  0  0  0  0  0  0
  -12.7611  -14.0340   -5.3709 C   0  0  0  0  0  0  0  0  0  0  0  0
  -12.6820  -12.9134   -6.1193 N   0  0  0  0  0  0  0  0  0  0  0  0
  -11.8742  -13.1052   -7.1805 C   0  0  0  0  0  0  0  0  0  0  0  0
   -7.9498   -6.6556  -12.1005 H   0  0  0  0  0  0  0  0  0  0  0  0
   -9.4988   -7.5098  -12.3030 H   0  0  0  0  0  0  0  0  0  0  0  0
   -8.0353   -8.0455  -14.2066 H   0  0  0  0  0  0  0  0  0  0  0  0
   -8.2351  -10.3018  -12.1364 H   0  0  0  0  0  0  0  0  0  0  0  0
   -6.8968  -11.6936  -13.5523 H   0  0  0  0  0  0  0  0  0  0  0  0
   -6.4051  -11.2277  -15.5890 H   0  0  0  0  0  0  0  0  0  0  0  0
   -5.0812   -9.6390  -14.1366 H   0  0  0  0  0  0  0  0  0  0  0  0
   -5.9847   -9.1466  -10.5363 H   0  0  0  0  0  0  0  0  0  0  0  0
   -1.3887  -13.0445   -9.3407 H   0  0  0  0  0  0  0  0  0  0  0  0
   -2.5229  -11.8928   -8.6987 H   0  0  0  0  0  0  0  0  0  0  0  0
   -2.0640  -13.1133  -13.7739 H   0  0  0  0  0  0  0  0  0  0  0  0
  -12.5117  -10.0921  -12.2512 H   0  0  0  0  0  0  0  0  0  0  0  0
  -11.1359   -8.9684  -12.1889 H   0  0  0  0  0  0  0  0  0  0  0  0
  -12.5627   -8.7224  -10.1946 H   0  0  0  0  0  0  0  0  0  0  0  0
   -9.8210   -9.9929   -9.7048 H   0  0  0  0  0  0  0  0  0  0  0  0
  -10.3049   -9.9877   -7.3415 H   0  0  0  0  0  0  0  0  0  0  0  0
  -11.9336   -8.8727   -6.4530 H   0  0  0  0  0  0  0  0  0  0  0  0
  -12.9694  -10.8212   -7.6830 H   0  0  0  0  0  0  0  0  0  0  0  0
  -10.3293  -12.4333   -9.9531 H   0  0  0  0  0  0  0  0  0  0  0  0
  -10.9347  -17.3327   -6.2326 H   0  0  0  0  0  0  0  0  0  0  0  0
  -10.1794  -16.6677   -7.6849 H   0  0  0  0  0  0  0  0  0  0  0  0
  -13.4011  -13.9694   -4.4959 H   0  0  0  0  0  0  0  0  0  0  0  0
  1  2  2  1  0  0  0
  1  3  1  0  0  0  0
  1  4  1  0  0  0  0
  1 31  1  0  0  0  0
  4  5  1  0  0  0  0
  5  6  1  0  0  0  0
  5 45  1  0  0  0  0
  5 46  1  0  0  0  0
  6  7  1  0  0  0  0
  6  8  1  0  0  0  0
  6 47  1  6  0  0  0
  7 12  1  0  0  0  0
  8  9  1  0  0  0  0
  8 10  1  0  0  0  0
  8 48  1  1  0  0  0
  9 23  1  0  0  0  0
 10 11  1  0  0  0  0
 10 12  1  0  0  0  0
 10 49  1  1  0  0  0
 11 50  1  0  0  0  0
 12 13  1  0  0  0  0
 12 51  1  6  0  0  0
 13 14  2  0  0  0  0
 13 22  1  0  0  0  0
 14 15  1  0  0  0  0
 14 52  1  0  0  0  0
 15 16  1  0  0  0  0
 16 17  2  0  0  0  0
 16 22  1  0  0  0  0
 17 18  1  0  0  0  0
 17 19  1  0  0  0  0
 18 53  1  0  0  0  0
 18 54  1  0  0  0  0
 19 20  2  0  0  0  0
 20 21  1  0  0  0  0
 20 55  1  0  0  0  0
 21 22  2  0  0  0  0
 23 24  2  1  0  0  0
 23 25  1  0  0  0  0
 23 26  1  0  0  0  0
 26 27  1  0  0  0  0
 27 28  1  0  0  0  0
 27 56  1  0  0  0  0
 27 57  1  0  0  0  0
 28 29  1  0  0  0  0
 28 30  1  0  0  0  0
 28 58  1  1  0  0  0
 29 34  1  0  0  0  0
 30 31  1  0  0  0  0
 30 32  1  0  0  0  0
 30 59  1  6  0  0  0
 32 33  1  0  0  0  0
 32 34  1  0  0  0  0
 32 60  1  1  0  0  0
 33 61  1  0  0  0  0
 34 35  1  0  0  0  0
 34 62  1  1  0  0  0
 35 36  2  0  0  0  0
 35 44  1  0  0  0  0
 36 37  1  0  0  0  0
 36 63  1  0  0  0  0
 37 38  1  0  0  0  0
 38 39  2  0  0  0  0
 38 44  1  0  0  0  0
 39 40  1  0  0  0  0
 39 41  1  0  0  0  0
 40 64  1  0  0  0  0
 40 65  1  0  0  0  0
 41 42  2  0  0  0  0
 42 43  1  0  0  0  0
 42 66  1  0  0  0  0
 43 44  2  0  0  0  0
M  CHG  2  13   1  35   1
M  END
$$$$
