2BA
 OpenBabel04111921493D

 66 72  0  0  1  0  0  0  0  0999 V2000
   59.8184   74.0326  -87.8646 P   0  0  2  0  0  0  0  0  0  0  0  0
   59.1862   73.4305  -86.6350 O   0  0  0  0  0  0  0  0  0  0  0  0
   61.0014   74.9658  -87.7826 O   0  0  0  0  0  0  0  0  0  0  0  0
   58.6664   74.7515  -88.7471 O   0  0  0  0  0  0  0  0  0  0  0  0
   57.4245   74.0950  -88.9180 C   0  0  0  0  0  0  0  0  0  0  0  0
   56.4873   74.9765  -89.7357 C   0  0  1  0  0  0  0  0  0  0  0  0
   56.1106   76.1488  -88.9948 O   0  0  0  0  0  0  0  0  0  0  0  0
   57.0649   75.4647  -91.0641 C   0  0  1  0  0  0  0  0  0  0  0  0
   56.8457   74.4560  -92.0336 O   0  0  0  0  0  0  0  0  0  0  0  0
   56.2892   76.7627  -91.3330 C   0  0  1  0  0  0  0  0  0  0  0  0
   55.2289   76.6818  -92.3044 O   0  0  0  0  0  0  0  0  0  0  0  0
   55.6370   77.0650  -89.9808 C   0  0  2  0  0  0  0  0  0  0  0  0
   55.7721   78.4116  -89.4977 N   0  3  0  0  0  0  0  0  0  0  0  0
   54.7310   79.2454  -89.1880 C   0  0  0  0  0  0  0  0  0  0  0  0
   55.1494   80.4193  -88.7676 N   0  0  0  0  0  0  0  0  0  0  0  0
   56.5321   80.3143  -88.7933 C   0  0  0  0  0  0  0  0  0  0  0  0
   57.5541   81.2133  -88.4566 C   0  0  0  0  0  0  0  0  0  0  0  0
   57.2899   82.4975  -88.0293 N   0  0  0  0  0  0  0  0  0  0  0  0
   58.8414   80.8064  -88.5617 N   0  0  0  0  0  0  0  0  0  0  0  0
   59.0797   79.5493  -89.0054 C   0  0  0  0  0  0  0  0  0  0  0  0
   58.1843   78.6290  -89.3933 N   0  0  0  0  0  0  0  0  0  0  0  0
   56.9330   79.0721  -89.2430 C   0  0  0  0  0  0  0  0  0  0  0  0
   57.9578   74.2610  -93.2024 P   0  0  2  0  0  0  0  0  0  0  0  0
   58.3462   75.6211  -93.7145 O   0  0  0  0  0  0  0  0  0  0  0  0
   57.4612   73.1706  -94.1174 O   0  0  0  0  0  0  0  0  0  0  0  0
   59.1928   73.6967  -92.3310 O   0  0  0  0  0  0  0  0  0  0  0  0
   59.2138   72.3692  -91.8459 C   0  0  0  0  0  0  0  0  0  0  0  0
   60.5597   72.1283  -91.1541 C   0  0  1  0  0  0  0  0  0  0  0  0
   61.6397   72.2020  -92.1205 O   0  0  0  0  0  0  0  0  0  0  0  0
   60.8772   73.1523  -90.0674 C   0  0  1  0  0  0  0  0  0  0  0  0
   60.2080   72.8194  -88.8683 O   0  0  0  0  0  0  0  0  0  0  0  0
   62.3960   73.0580  -90.0001 C   0  0  1  0  0  0  0  0  0  0  0  0
   62.8251   71.8789  -89.2823 O   0  0  0  0  0  0  0  0  0  0  0  0
   62.7486   72.8766  -91.4818 C   0  0  2  0  0  0  0  0  0  0  0  0
   63.0617   74.1036  -92.1870 N   0  3  0  0  0  0  0  0  0  0  0  0
   62.1878   74.9862  -92.7732 C   0  0  0  0  0  0  0  0  0  0  0  0
   62.8232   75.9977  -93.3525 N   0  0  0  0  0  0  0  0  0  0  0  0
   64.1458   75.7570  -93.1007 C   0  0  0  0  0  0  0  0  0  0  0  0
   65.3033   76.4910  -93.4510 C   0  0  0  0  0  0  0  0  0  0  0  0
   65.2518   77.6471  -94.1827 N   0  0  0  0  0  0  0  0  0  0  0  0
   66.5034   76.0145  -93.0438 N   0  0  0  0  0  0  0  0  0  0  0  0
   66.5222   74.8718  -92.3190 C   0  0  0  0  0  0  0  0  0  0  0  0
   65.4920   74.0870  -91.9408 N   0  0  0  0  0  0  0  0  0  0  0  0
   64.3260   74.6070  -92.3714 C   0  0  0  0  0  0  0  0  0  0  0  0
   56.9746   73.8920  -87.9410 H   0  0  0  0  0  0  0  0  0  0  0  0
   57.5740   73.1452  -89.4338 H   0  0  0  0  0  0  0  0  0  0  0  0
   55.5612   74.4162  -89.9158 H   0  0  0  0  0  0  0  0  0  0  0  0
   58.1298   75.7060  -90.9551 H   0  0  0  0  0  0  0  0  0  0  0  0
   56.9679   77.5538  -91.6732 H   0  0  0  0  0  0  0  0  0  0  0  0
   54.7667   75.8400  -92.1540 H   0  0  0  0  0  0  0  0  0  0  0  0
   54.5522   76.8756  -90.0580 H   0  0  0  0  0  0  0  0  0  0  0  0
   53.6966   78.9409  -89.2891 H   0  0  0  0  0  0  0  0  0  0  0  0
   58.0725   83.0337  -87.6914 H   0  0  0  0  0  0  0  0  0  0  0  0
   56.3252   82.7296  -87.8341 H   0  0  0  0  0  0  0  0  0  0  0  0
   60.1205   79.2436  -89.0571 H   0  0  0  0  0  0  0  0  0  0  0  0
   59.0939   71.6638  -92.6741 H   0  0  0  0  0  0  0  0  0  0  0  0
   58.3932   72.2265  -91.1417 H   0  0  0  0  0  0  0  0  0  0  0  0
   60.5619   71.1136  -90.7338 H   0  0  0  0  0  0  0  0  0  0  0  0
   60.6037   74.1628  -90.3937 H   0  0  0  0  0  0  0  0  0  0  0  0
   62.8695   73.9273  -89.5347 H   0  0  0  0  0  0  0  0  0  0  0  0
   63.7891   71.9481  -89.1863 H   0  0  0  0  0  0  0  0  0  0  0  0
   63.6138   72.2117  -91.6010 H   0  0  0  0  0  0  0  0  0  0  0  0
   61.1223   74.8679  -92.7631 H   0  0  0  0  0  0  0  0  0  0  0  0
   66.1076   78.1142  -94.4312 H   0  0  0  0  0  0  0  0  0  0  0  0
   64.3371   77.9797  -94.4658 H   0  0  0  0  0  0  0  0  0  0  0  0
   67.5051   74.5420  -91.9952 H   0  0  0  0  0  0  0  0  0  0  0  0
  1  2  2  1  0  0  0
  1  3  1  0  0  0  0
  1  4  1  0  0  0  0
  1 31  1  0  0  0  0
  4  5  1  0  0  0  0
  5  6  1  0  0  0  0
  5 45  1  0  0  0  0
  5 46  1  0  0  0  0
  6  7  1  0  0  0  0
  6  8  1  0  0  0  0
  6 47  1  6  0  0  0
  7 12  1  0  0  0  0
  8  9  1  0  0  0  0
  8 10  1  0  0  0  0
  8 48  1  1  0  0  0
  9 23  1  0  0  0  0
 10 11  1  0  0  0  0
 10 12  1  0  0  0  0
 10 49  1  6  0  0  0
 11 50  1  0  0  0  0
 12 13  1  0  0  0  0
 12 51  1  6  0  0  0
 13 14  2  0  0  0  0
 13 22  1  0  0  0  0
 14 15  1  0  0  0  0
 14 52  1  0  0  0  0
 15 16  1  0  0  0  0
 16 17  2  0  0  0  0
 16 22  1  0  0  0  0
 17 18  1  0  0  0  0
 17 19  1  0  0  0  0
 18 53  1  0  0  0  0
 18 54  1  0  0  0  0
 19 20  2  0  0  0  0
 20 21  1  0  0  0  0
 20 55  1  0  0  0  0
 21 22  2  0  0  0  0
 23 24  2  6  0  0  0
 23 25  1  0  0  0  0
 23 26  1  0  0  0  0
 26 27  1  0  0  0  0
 27 28  1  0  0  0  0
 27 56  1  0  0  0  0
 27 57  1  0  0  0  0
 28 29  1  0  0  0  0
 28 30  1  0  0  0  0
 28 58  1  1  0  0  0
 29 34  1  0  0  0  0
 30 31  1  0  0  0  0
 30 32  1  0  0  0  0
 30 59  1  6  0  0  0
 32 33  1  0  0  0  0
 32 34  1  0  0  0  0
 32 60  1  1  0  0  0
 33 61  1  0  0  0  0
 34 35  1  0  0  0  0
 34 62  1  6  0  0  0
 35 36  2  0  0  0  0
 35 44  1  0  0  0  0
 36 37  1  0  0  0  0
 36 63  1  0  0  0  0
 37 38  1  0  0  0  0
 38 39  2  0  0  0  0
 38 44  1  0  0  0  0
 39 40  1  0  0  0  0
 39 41  1  0  0  0  0
 40 64  1  0  0  0  0
 40 65  1  0  0  0  0
 41 42  2  0  0  0  0
 42 43  1  0  0  0  0
 42 66  1  0  0  0  0
 43 44  2  0  0  0  0
M  CHG  2  13   1  35   1
M  END
$$$$
