2CZ
 OpenBabel04111920293D

 31 31  0  0  1  0  0  0  0  0999 V2000
   68.3137   -9.2624    2.7915 N   0  3  0  0  0  0  0  0  0  0  0  0
   67.5441   -7.9927    2.6423 C   0  0  0  0  0  0  0  0  0  0  0  0
   69.1055   -6.3331    3.6044 N   0  0  0  0  0  0  0  0  0  0  0  0
   67.7989   -7.0227    3.7962 C   0  0  2  0  0  0  0  0  0  0  0  0
   67.7925   -7.6821    5.1816 C   0  0  1  0  0  0  0  0  0  0  0  0
   67.6766   -6.6487    6.1699 O   0  0  0  0  0  0  0  0  0  0  0  0
   66.6231   -8.6419    5.4103 C   0  0  2  0  0  0  0  0  0  0  0  0
   66.6773   -8.9778    6.8039 O   0  0  0  0  0  0  0  0  0  0  0  0
   66.6337   -9.9633    4.6195 C   0  0  1  0  0  0  0  0  0  0  0  0
   65.5216  -10.0031    3.7146 O   0  0  0  0  0  0  0  0  0  0  0  0
   67.8630  -10.3051    3.7796 C   0  0  0  0  0  0  0  0  0  0  0  0
   69.1507   -4.9648    3.5279 C   0  0  0  0  0  0  0  0  0  0  0  0
   68.1431   -4.2525    3.4948 O   0  0  0  0  0  0  0  0  0  0  0  0
   70.5450   -4.3547    3.4577 C   0  0  0  0  0  0  0  0  0  0  0  0
   68.2985   -9.7096    1.8622 H   0  0  0  0  0  0  0  0  0  0  0  0
   66.4875   -8.2277    2.5334 H   0  0  0  0  0  0  0  0  0  0  0  0
   67.8891   -7.5396    1.7054 H   0  0  0  0  0  0  0  0  0  0  0  0
   69.9796   -6.8470    3.6670 H   0  0  0  0  0  0  0  0  0  0  0  0
   67.0055   -6.2746    3.7669 H   0  0  0  0  0  0  0  0  0  0  0  0
   68.7405   -8.2039    5.3710 H   0  0  0  0  0  0  0  0  0  0  0  0
   68.4102   -6.0180    6.0763 H   0  0  0  0  0  0  0  0  0  0  0  0
   65.6886   -8.0972    5.2189 H   0  0  0  0  0  0  0  0  0  0  0  0
   65.8510   -9.4025    7.0850 H   0  0  0  0  0  0  0  0  0  0  0  0
   66.4978  -10.7940    5.3279 H   0  0  0  0  0  0  0  0  0  0  0  0
   64.6980   -9.9374    4.2258 H   0  0  0  0  0  0  0  0  0  0  0  0
   68.7223  -10.5414    4.4017 H   0  0  0  0  0  0  0  0  0  0  0  0
   67.6125  -11.1775    3.1587 H   0  0  0  0  0  0  0  0  0  0  0  0
   70.4518   -3.2719    3.3841 H   0  0  0  0  0  0  0  0  0  0  0  0
   71.0611   -4.7274    2.5716 H   0  0  0  0  0  0  0  0  0  0  0  0
   71.1118   -4.6028    4.3592 H   0  0  0  0  0  0  0  0  0  0  0  0
   69.3033   -9.0550    2.9675 H   0  0  0  0  0  0  0  0  0  0  0  0
  1  2  1  0  0  0  0
  1 11  1  0  0  0  0
  1 15  1  0  0  0  0
  1 31  1  0  0  0  0
  2  4  1  0  0  0  0
  2 16  1  0  0  0  0
  2 17  1  0  0  0  0
  3  4  1  0  0  0  0
  3 12  1  0  0  0  0
  3 18  1  0  0  0  0
  4  5  1  0  0  0  0
  4 19  1  6  0  0  0
  5  6  1  0  0  0  0
  5  7  1  0  0  0  0
  5 20  1  1  0  0  0
  6 21  1  0  0  0  0
  7  8  1  0  0  0  0
  7  9  1  0  0  0  0
  7 22  1  6  0  0  0
  8 23  1  0  0  0  0
  9 10  1  0  0  0  0
  9 11  1  0  0  0  0
  9 24  1  1  0  0  0
 10 25  1  0  0  0  0
 11 26  1  0  0  0  0
 11 27  1  0  0  0  0
 12 13  2  0  0  0  0
 12 14  1  0  0  0  0
 14 28  1  0  0  0  0
 14 29  1  0  0  0  0
 14 30  1  0  0  0  0
M  CHG  1   1   1
M  END
$$$$
