2GQ
 OpenBabel04111920313D

 31 33  0  0  0  0  0  0  0  0999 V2000
  -24.0074  -28.5492    4.6533 O   0  0  0  0  0  0  0  0  0  0  0  0
  -25.1507  -28.6075    5.0362 C   0  0  0  0  0  0  0  0  0  0  0  0
  -25.6359  -28.8774    6.4049 C   0  0  0  0  0  0  0  0  0  0  0  0
  -24.7232  -29.1283    7.4163 C   0  0  0  0  0  0  0  0  0  0  0  0
  -25.1851  -29.3298    8.7077 C   0  0  0  0  0  0  0  0  0  0  0  0
  -26.1582  -28.3747    4.0783 N   0  0  0  0  0  0  0  0  0  0  0  0
  -27.4594  -28.3686    4.2945 C   0  0  0  0  0  0  0  0  0  0  0  0
  -28.0088  -28.6209    5.6334 C   0  0  0  0  0  0  0  0  0  0  0  0
  -27.0089  -28.8544    6.6926 C   0  0  0  0  0  0  0  0  0  0  0  0
  -27.4733  -29.0658    7.9805 C   0  0  0  0  0  0  0  0  0  0  0  0
  -26.5563  -29.2935    8.9966 C   0  0  0  0  0  0  0  0  0  0  0  0
  -28.3217  -28.1591    3.3304 N   0  0  0  0  0  0  0  0  0  0  0  0
  -29.7961  -28.1821    3.5002 C   0  0  0  0  0  0  0  0  0  0  0  0
  -30.2847  -28.0587    2.0714 C   0  0  0  0  0  0  0  0  0  0  0  0
  -29.1253  -28.5737    1.2408 C   0  0  0  0  0  0  0  0  0  0  0  0
  -27.9204  -28.0059    1.9451 C   0  0  0  0  0  0  0  0  0  0  0  0
  -23.6562  -29.1583    7.1967 H   0  0  0  0  0  0  0  0  0  0  0  0
  -24.4834  -29.5114    9.5197 H   0  0  0  0  0  0  0  0  0  0  0  0
  -25.8027  -28.1881    3.1564 H   0  0  0  0  0  0  0  0  0  0  0  0
  -28.6653  -29.5102    5.5648 H   0  0  0  0  0  0  0  0  0  0  0  0
  -28.6211  -27.7465    5.9076 H   0  0  0  0  0  0  0  0  0  0  0  0
  -28.5394  -29.0446    8.2121 H   0  0  0  0  0  0  0  0  0  0  0  0
  -26.9069  -29.4437   10.0258 H   0  0  0  0  0  0  0  0  0  0  0  0
  -30.1222  -27.3454    4.1269 H   0  0  0  0  0  0  0  0  0  0  0  0
  -30.1094  -29.1355    3.9410 H   0  0  0  0  0  0  0  0  0  0  0  0
  -30.4666  -27.0059    1.8340 H   0  0  0  0  0  0  0  0  0  0  0  0
  -31.1873  -28.6442    1.8997 H   0  0  0  0  0  0  0  0  0  0  0  0
  -29.1623  -28.2493    0.2137 H   0  0  0  0  0  0  0  0  0  0  0  0
  -29.0931  -29.6712    1.3148 H   0  0  0  0  0  0  0  0  0  0  0  0
  -27.0297  -28.5932    1.7164 H   0  0  0  0  0  0  0  0  0  0  0  0
  -27.7518  -26.9429    1.7578 H   0  0  0  0  0  0  0  0  0  0  0  0
  1  2  2  0  0  0  0
  2  3  1  0  0  0  0
  2  6  1  0  0  0  0
  3  4  2  0  0  0  0
  3  9  1  0  0  0  0
  4  5  1  0  0  0  0
  4 17  1  0  0  0  0
  5 11  2  0  0  0  0
  5 18  1  0  0  0  0
  6  7  1  0  0  0  0
  6 19  1  0  0  0  0
  7  8  1  0  0  0  0
  7 12  2  0  0  0  0
  8  9  1  0  0  0  0
  8 20  1  0  0  0  0
  8 21  1  0  0  0  0
  9 10  2  0  0  0  0
 10 11  1  0  0  0  0
 10 22  1  0  0  0  0
 11 23  1  0  0  0  0
 12 13  1  0  0  0  0
 12 16  1  0  0  0  0
 13 14  1  0  0  0  0
 13 24  1  0  0  0  0
 13 25  1  0  0  0  0
 14 15  1  0  0  0  0
 14 26  1  0  0  0  0
 14 27  1  0  0  0  0
 15 16  1  0  0  0  0
 15 28  1  0  0  0  0
 15 29  1  0  0  0  0
 16 30  1  0  0  0  0
 16 31  1  0  0  0  0
M  END
$$$$
