2J2
 OpenBabel04111920323D

 28 30  0  0  1  0  0  0  0  0999 V2000
   10.9242   -6.3409  -11.2095 C   0  0  1  0  0  0  0  0  0  0  0  0
   10.6575   -5.6018  -10.0781 C   0  0  2  0  0  0  0  0  0  0  0  0
   11.3313   -5.8927   -8.7794 C   0  0  0  0  0  0  0  0  0  0  0  0
   11.9349   -7.3121   -8.7671 C   0  0  0  0  0  0  0  0  0  0  0  0
   12.7035   -7.6481  -10.0604 C   0  0  0  0  0  0  0  0  0  0  0  0
   11.0964   -8.8639  -11.6053 C   0  0  0  0  0  0  0  0  0  0  0  0
    9.8521   -8.9033  -11.4067 O   0  0  0  0  0  0  0  0  0  0  0  0
   11.8481   -9.7796  -12.0580 O   0  0  0  0  0  0  0  0  0  0  0  0
   11.8398   -7.5238  -11.3324 C   0  0  1  0  0  0  0  0  0  0  0  0
    9.6642   -4.6394  -10.4305 C   0  0  2  0  0  0  0  0  0  0  0  0
    8.9776   -3.6258   -9.7323 C   0  0  0  0  0  0  0  0  0  0  0  0
   10.1254   -5.8968  -12.2216 N   0  3  0  0  0  0  0  0  0  0  0  0
    9.3578   -4.8421  -11.7812 C   0  0  1  0  0  0  0  0  0  0  0  0
    8.4034   -4.0840  -12.4709 C   0  0  0  0  0  0  0  0  0  0  0  0
    7.7439   -3.0790  -11.7619 C   0  0  0  0  0  0  0  0  0  0  0  0
    8.0278   -2.8580  -10.4164 C   0  0  2  0  0  0  0  0  0  0  0  0
    7.1891   -1.6045   -9.5761 Cl  0  0  0  0  0  0  0  0  0  0  0  0
   10.6269   -5.7933   -7.9461 H   0  0  0  0  0  0  0  0  0  0  0  0
   12.1300   -5.1574   -8.6237 H   0  0  0  0  0  0  0  0  0  0  0  0
   11.1334   -8.0492   -8.6283 H   0  0  0  0  0  0  0  0  0  0  0  0
   12.6082   -7.4109   -7.9077 H   0  0  0  0  0  0  0  0  0  0  0  0
   13.1291   -8.6553   -9.9756 H   0  0  0  0  0  0  0  0  0  0  0  0
   13.5538   -6.9574  -10.1419 H   0  0  0  0  0  0  0  0  0  0  0  0
   12.5084   -7.3554  -12.1878 H   0  0  0  0  0  0  0  0  0  0  0  0
    9.1809   -3.4575   -8.6820 H   0  0  0  0  0  0  0  0  0  0  0  0
   10.0593   -6.3348  -13.1297 H   0  0  0  0  0  0  0  0  0  0  0  0
    8.1805   -4.2786  -13.5151 H   0  0  0  0  0  0  0  0  0  0  0  0
    6.9997   -2.4754  -12.2723 H   0  0  0  0  0  0  0  0  0  0  0  0
  1  2  1  0  0  0  0
  1  9  1  0  0  0  0
  1 12  1  1  0  0  0
  2  3  1  1  0  0  0
  2 10  1  0  0  0  0
  3  4  1  0  0  0  0
  3 18  1  0  0  0  0
  3 19  1  0  0  0  0
  4  5  1  0  0  0  0
  4 20  1  0  0  0  0
  4 21  1  0  0  0  0
  5  9  1  0  0  0  0
  5 22  1  0  0  0  0
  5 23  1  0  0  0  0
  6  7  2  0  0  0  0
  6  8  1  0  0  0  0
  6  9  1  0  0  0  0
  9 24  1  6  0  0  0
 10 11  1  1  0  0  0
 10 13  1  0  0  0  0
 11 16  1  0  0  0  0
 11 25  1  0  0  0  0
 12 26  1  0  0  0  0
 13 12  1  1  0  0  0
 13 14  1  0  0  0  0
 14 15  1  0  0  0  0
 14 27  1  0  0  0  0
 15 16  1  0  0  0  0
 15 28  1  0  0  0  0
 16 17  1  6  0  0  0
M  CHG  1  12   1
M  END
$$$$
