2J9
 OpenBabel04111920313D

 27 29  0  0  0  0  0  0  0  0999 V2000
    5.0945   -1.4171   43.5277 C   0  0  0  0  0  0  0  0  0  0  0  0
    6.0364   -2.3938   42.8944 C   0  0  0  0  0  0  0  0  0  0  0  0
    4.5975   -2.7813   43.1132 C   0  0  0  0  0  0  0  0  0  0  0  0
    3.6717   -2.9536   41.9690 N   0  0  0  0  0  0  0  0  0  0  0  0
    4.0202   -4.0390   41.0530 C   0  0  0  0  0  0  0  0  0  0  0  0
    3.4772   -3.8225   39.7473 N   0  0  0  0  0  0  0  0  0  0  0  0
    1.8324   -3.8399   39.6808 S   0  0  0  0  0  0  0  0  0  0  0  0
    1.4098   -5.2127   39.8681 O   0  0  0  0  0  0  0  0  0  0  0  0
    1.4484   -3.0786   38.5115 O   0  0  0  0  0  0  0  0  0  0  0  0
    1.3440   -2.9500   41.1133 C   0  0  0  0  0  0  0  0  0  0  0  0
    2.2900   -2.6552   42.1087 C   0  0  0  0  0  0  0  0  0  0  0  0
    1.7963   -1.9917   43.2475 C   0  0  0  0  0  0  0  0  0  0  0  0
    0.4427   -1.6484   43.3904 C   0  0  0  0  0  0  0  0  0  0  0  0
   -0.4520   -1.9562   42.3719 C   0  0  0  0  0  0  0  0  0  0  0  0
   -1.7410   -1.6276   42.5017 F   0  0  0  0  0  0  0  0  0  0  0  0
   -0.0135   -2.6107   41.2285 C   0  0  0  0  0  0  0  0  0  0  0  0
    4.7806   -0.5578   42.9466 H   0  0  0  0  0  0  0  0  0  0  0  0
    5.2099   -1.2191   44.5829 H   0  0  0  0  0  0  0  0  0  0  0  0
    6.7930   -2.8430   43.5153 H   0  0  0  0  0  0  0  0  0  0  0  0
    6.3715   -2.1647   41.8793 H   0  0  0  0  0  0  0  0  0  0  0  0
    4.4180   -3.5019   43.9099 H   0  0  0  0  0  0  0  0  0  0  0  0
    3.6923   -5.0079   41.4478 H   0  0  0  0  0  0  0  0  0  0  0  0
    5.1074   -4.0990   40.9470 H   0  0  0  0  0  0  0  0  0  0  0  0
    3.9936   -3.3254   39.0279 H   0  0  0  0  0  0  0  0  0  0  0  0
    2.4549   -1.7287   44.0715 H   0  0  0  0  0  0  0  0  0  0  0  0
    0.0890   -1.1441   44.2784 H   0  0  0  0  0  0  0  0  0  0  0  0
   -0.7319   -2.8554   40.4513 H   0  0  0  0  0  0  0  0  0  0  0  0
  1  2  1  0  0  0  0
  1  3  1  0  0  0  0
  1 17  1  0  0  0  0
  1 18  1  0  0  0  0
  2  3  1  0  0  0  0
  2 19  1  0  0  0  0
  2 20  1  0  0  0  0
  3  4  1  0  0  0  0
  3 21  1  0  0  0  0
  4  5  1  0  0  0  0
  4 11  1  0  0  0  0
  5  6  1  0  0  0  0
  5 22  1  0  0  0  0
  5 23  1  0  0  0  0
  6  7  1  0  0  0  0
  6 24  1  0  0  0  0
  7  8  2  0  0  0  0
  7  9  2  0  0  0  0
  7 10  1  0  0  0  0
 10 11  2  0  0  0  0
 10 16  1  0  0  0  0
 11 12  1  0  0  0  0
 12 13  2  0  0  0  0
 12 25  1  0  0  0  0
 13 14  1  0  0  0  0
 13 26  1  0  0  0  0
 14 15  1  0  0  0  0
 14 16  2  0  0  0  0
 16 27  1  0  0  0  0
M  END
$$$$
