2L1
 OpenBabel04111920393D

 35 37  0  0  1  0  0  0  0  0999 V2000
   12.4079   -5.8193    1.4188 C   0  0  0  0  0  0  0  0  0  0  0  0
   12.8304   -4.6073    0.6049 C   0  0  0  0  0  0  0  0  0  0  0  0
   11.8269   -4.2229   -0.4488 C   0  0  0  0  0  0  0  0  0  0  0  0
   12.2038   -3.3175   -1.4341 C   0  0  0  0  0  0  0  0  0  0  0  0
   11.2857   -2.9305   -2.4111 C   0  0  0  0  0  0  0  0  0  0  0  0
    9.9979   -3.4466   -2.4052 C   0  0  0  0  0  0  0  0  0  0  0  0
    9.6051   -4.3490   -1.4144 C   0  0  0  0  0  0  0  0  0  0  0  0
   10.5117   -4.7277   -0.4185 C   0  0  0  0  0  0  0  0  0  0  0  0
   10.0688   -5.7067    0.6246 C   0  0  0  0  0  0  0  0  0  0  0  0
   10.9619   -5.7007    1.8274 N   0  3  1  0  0  0  0  0  0  0  0  0
   10.5489   -6.7498    2.8125 C   0  0  0  0  0  0  0  0  0  0  0  0
   11.3484   -6.7130    4.0702 C   0  0  0  0  0  0  0  0  0  0  0  0
   11.3526   -5.6173    4.9037 N   0  0  0  0  0  0  0  0  0  0  0  0
   12.1824   -5.9346    5.8833 C   0  0  0  0  0  0  0  0  0  0  0  0
   12.7660   -7.1533    5.6756 N   0  3  0  0  0  0  0  0  0  0  0  0
   12.2562   -7.6487    4.5035 C   0  0  0  0  0  0  0  0  0  0  0  0
   12.6631   -8.9335    3.8923 C   0  0  0  0  0  0  0  0  0  0  0  0
   13.0290   -5.8844    2.3140 H   0  0  0  0  0  0  0  0  0  0  0  0
   12.5078   -6.7484    0.8414 H   0  0  0  0  0  0  0  0  0  0  0  0
   13.7931   -4.8304    0.1256 H   0  0  0  0  0  0  0  0  0  0  0  0
   12.9833   -3.7495    1.2752 H   0  0  0  0  0  0  0  0  0  0  0  0
   13.2101   -2.9038   -1.4591 H   0  0  0  0  0  0  0  0  0  0  0  0
   11.5854   -2.2232   -3.1792 H   0  0  0  0  0  0  0  0  0  0  0  0
    9.2872   -3.1460   -3.1707 H   0  0  0  0  0  0  0  0  0  0  0  0
    8.5948   -4.7454   -1.4313 H   0  0  0  0  0  0  0  0  0  0  0  0
   10.0811   -6.7201    0.2000 H   0  0  0  0  0  0  0  0  0  0  0  0
    9.0585   -5.4681    0.9695 H   0  0  0  0  0  0  0  0  0  0  0  0
   10.6753   -7.7079    2.2991 H   0  0  0  0  0  0  0  0  0  0  0  0
    9.4813   -6.6245    3.0267 H   0  0  0  0  0  0  0  0  0  0  0  0
   12.4058   -5.3286    6.7566 H   0  0  0  0  0  0  0  0  0  0  0  0
   13.4484   -7.5933    6.2806 H   0  0  0  0  0  0  0  0  0  0  0  0
   12.1314   -9.0927    2.9487 H   0  0  0  0  0  0  0  0  0  0  0  0
   12.4145   -9.7679    4.5507 H   0  0  0  0  0  0  0  0  0  0  0  0
   13.7309   -8.9367    3.6596 H   0  0  0  0  0  0  0  0  0  0  0  0
   10.8411   -4.8029    2.3192 H   0  0  0  0  0  0  0  0  0  0  0  0
  1  2  1  0  0  0  0
  1 10  1  0  0  0  0
  1 18  1  0  0  0  0
  1 19  1  0  0  0  0
  2  3  1  0  0  0  0
  2 20  1  0  0  0  0
  2 21  1  0  0  0  0
  3  4  2  0  0  0  0
  3  8  1  0  0  0  0
  4  5  1  0  0  0  0
  4 22  1  0  0  0  0
  5  6  2  0  0  0  0
  5 23  1  0  0  0  0
  6  7  1  0  0  0  0
  6 24  1  0  0  0  0
  7  8  2  0  0  0  0
  7 25  1  0  0  0  0
  8  9  1  0  0  0  0
  9 10  1  0  0  0  0
  9 26  1  0  0  0  0
  9 27  1  0  0  0  0
 10 11  1  0  0  0  0
 10 35  1  1  0  0  0
 11 12  1  0  0  0  0
 11 28  1  0  0  0  0
 11 29  1  0  0  0  0
 12 13  1  0  0  0  0
 12 16  2  0  0  0  0
 13 14  1  0  0  0  0
 14 15  2  0  0  0  0
 14 30  1  0  0  0  0
 15 16  1  0  0  0  0
 15 31  1  0  0  0  0
 16 17  1  0  0  0  0
 17 32  1  0  0  0  0
 17 33  1  0  0  0  0
 17 34  1  0  0  0  0
M  CHG  2  10   1  15   1
M  END
$$$$
