2LP
 OpenBabel04111919223D

 22 22  0  0  0  0  0  0  0  0999 V2000
    4.1279    8.8631    0.6575 C   0  0  0  0  0  0  0  0  0  0  0  0
    3.2171    9.3697    1.5929 C   0  0  0  0  0  0  0  0  0  0  0  0
    3.8650    7.5986    0.1017 C   0  0  0  0  0  0  0  0  0  0  0  0
    5.4051    9.5744    0.2776 C   0  0  0  0  0  0  0  0  0  0  0  0
    2.0806    8.6427    1.9552 C   0  0  0  0  0  0  0  0  0  0  0  0
    3.3964   10.5682    2.2232 O   0  0  0  0  0  0  0  0  0  0  0  0
    2.7216    6.8703    0.4553 C   0  0  0  0  0  0  0  0  0  0  0  0
    1.8263    7.3984    1.3830 C   0  0  0  0  0  0  0  0  0  0  0  0
    5.3248   10.7701   -0.6812 C   0  0  0  0  0  0  0  0  0  0  0  0
    4.3336   10.6818   -1.8292 C   0  0  0  0  0  0  0  0  0  0  0  0
    4.5668    7.1502   -0.5993 H   0  0  0  0  0  0  0  0  0  0  0  0
    6.1118    8.8420   -0.1299 H   0  0  0  0  0  0  0  0  0  0  0  0
    5.8860    9.9224    1.2017 H   0  0  0  0  0  0  0  0  0  0  0  0
    1.3985    9.0454    2.7002 H   0  0  0  0  0  0  0  0  0  0  0  0
    4.2172   10.9746    1.9038 H   0  0  0  0  0  0  0  0  0  0  0  0
    2.5404    5.9028    0.0200 H   0  0  0  0  0  0  0  0  0  0  0  0
    0.9407    6.8350    1.6676 H   0  0  0  0  0  0  0  0  0  0  0  0
    6.3270   10.9102   -1.1076 H   0  0  0  0  0  0  0  0  0  0  0  0
    5.1105   11.6833   -0.1139 H   0  0  0  0  0  0  0  0  0  0  0  0
    4.4347   11.5724   -2.4617 H   0  0  0  0  0  0  0  0  0  0  0  0
    3.3014   10.6578   -1.4679 H   0  0  0  0  0  0  0  0  0  0  0  0
    4.5149    9.8050   -2.4565 H   0  0  0  0  0  0  0  0  0  0  0  0
  1  2  2  0  0  0  0
  1  3  1  0  0  0  0
  1  4  1  0  0  0  0
  2  5  1  0  0  0  0
  2  6  1  0  0  0  0
  3  7  2  0  0  0  0
  3 11  1  0  0  0  0
  4  9  1  0  0  0  0
  4 12  1  0  0  0  0
  4 13  1  0  0  0  0
  5  8  2  0  0  0  0
  5 14  1  0  0  0  0
  6 15  1  0  0  0  0
  7  8  1  0  0  0  0
  7 16  1  0  0  0  0
  8 17  1  0  0  0  0
  9 10  1  0  0  0  0
  9 18  1  0  0  0  0
  9 19  1  0  0  0  0
 10 20  1  0  0  0  0
 10 21  1  0  0  0  0
 10 22  1  0  0  0  0
M  END
$$$$
