2M7
 OpenBabel04111921013D

 32 33  0  0  1  0  0  0  0  0999 V2000
   34.0615    8.9985   58.6169 C   0  0  0  0  0  0  0  0  0  0  0  0
   34.7397    9.6914   59.6197 C   0  0  0  0  0  0  0  0  0  0  0  0
   34.2014    9.7505   60.9052 C   0  0  0  0  0  0  0  0  0  0  0  0
   32.9875    9.1202   61.1890 C   0  0  0  0  0  0  0  0  0  0  0  0
   32.3061    8.4231   60.1892 C   0  0  0  0  0  0  0  0  0  0  0  0
   32.8338    8.3631   58.9045 C   0  0  0  0  0  0  0  0  0  0  0  0
   32.1731    7.6580   57.8676 C   0  0  0  0  0  0  0  0  0  0  0  0
   31.6269    7.0682   56.9806 C   0  0  0  0  0  0  0  0  0  0  0  0
   30.9215    6.3771   55.9077 C   0  0  2  0  0  0  0  0  0  0  0  0
   29.4534    6.4914   56.2610 N   0  3  0  0  0  0  0  0  0  0  0  0
   28.9255    5.0813   56.2397 C   0  0  1  0  0  0  0  0  0  0  0  0
   27.4957    5.0506   55.7849 C   0  0  0  0  0  0  0  0  0  0  0  0
   29.8832    4.3894   55.2834 C   0  0  1  0  0  0  0  0  0  0  0  0
   29.6571    4.9256   53.9730 O   0  0  0  0  0  0  0  0  0  0  0  0
   31.1962    4.8744   55.8745 C   0  0  1  0  0  0  0  0  0  0  0  0
   32.2964    4.5058   55.0775 O   0  0  0  0  0  0  0  0  0  0  0  0
   34.4858    8.9506   57.6190 H   0  0  0  0  0  0  0  0  0  0  0  0
   35.6872   10.1795   59.4036 H   0  0  0  0  0  0  0  0  0  0  0  0
   34.7294   10.2854   61.6911 H   0  0  0  0  0  0  0  0  0  0  0  0
   32.5803    9.1708   62.1924 H   0  0  0  0  0  0  0  0  0  0  0  0
   31.3653    7.9302   60.4241 H   0  0  0  0  0  0  0  0  0  0  0  0
   31.1143    6.8641   54.9488 H   0  0  0  0  0  0  0  0  0  0  0  0
   29.3173    6.9254   57.1807 H   0  0  0  0  0  0  0  0  0  0  0  0
   29.0271    4.6805   57.2533 H   0  0  0  0  0  0  0  0  0  0  0  0
   27.1583    4.0092   55.7757 H   0  0  0  0  0  0  0  0  0  0  0  0
   27.3829    5.4596   54.7767 H   0  0  0  0  0  0  0  0  0  0  0  0
   26.8681    5.6222   56.4711 H   0  0  0  0  0  0  0  0  0  0  0  0
   29.7780    3.3066   55.2673 H   0  0  0  0  0  0  0  0  0  0  0  0
   30.2511    4.4846   53.3305 H   0  0  0  0  0  0  0  0  0  0  0  0
   31.3287    4.4878   56.8977 H   0  0  0  0  0  0  0  0  0  0  0  0
   32.3538    3.5312   55.0685 H   0  0  0  0  0  0  0  0  0  0  0  0
   28.9979    7.0692   55.5465 H   0  0  0  0  0  0  0  0  0  0  0  0
  1  2  2  0  0  0  0
  1  6  1  0  0  0  0
  1 17  1  0  0  0  0
  2  3  1  0  0  0  0
  2 18  1  0  0  0  0
  3  4  2  0  0  0  0
  3 19  1  0  0  0  0
  4  5  1  0  0  0  0
  4 20  1  0  0  0  0
  5  6  2  0  0  0  0
  5 21  1  0  0  0  0
  6  7  1  0  0  0  0
  7  8  3  0  0  0  0
  8  9  1  0  0  0  0
  9 10  1  0  0  0  0
  9 15  1  0  0  0  0
  9 22  1  6  0  0  0
 10 11  1  0  0  0  0
 10 23  1  0  0  0  0
 10 32  1  0  0  0  0
 11 12  1  0  0  0  0
 11 13  1  0  0  0  0
 11 24  1  1  0  0  0
 12 25  1  0  0  0  0
 12 26  1  0  0  0  0
 12 27  1  0  0  0  0
 13 14  1  0  0  0  0
 13 15  1  0  0  0  0
 13 28  1  1  0  0  0
 14 29  1  0  0  0  0
 15 16  1  0  0  0  0
 15 30  1  1  0  0  0
 16 31  1  0  0  0  0
M  CHG  1  10   1
M  END
$$$$
