2OQ
 OpenBabel04111920443D

 46 49  0  0  0  0  0  0  0  0999 V2000
  -18.7977   -4.1285   13.3793 C   0  0  0  0  0  0  0  0  0  0  0  0
  -19.0548   -2.6904   13.6889 C   0  0  0  0  0  0  0  0  0  0  0  0
  -18.3455   -1.7127   13.1515 N   0  0  0  0  0  0  0  0  0  0  0  0
  -18.8280   -0.5404   13.6521 C   0  0  0  0  0  0  0  0  0  0  0  0
  -18.4246    0.7822   13.3883 C   0  0  0  0  0  0  0  0  0  0  0  0
  -19.0804    1.8324   14.0262 C   0  0  0  0  0  0  0  0  0  0  0  0
  -20.1177    1.5734   14.9110 C   0  0  0  0  0  0  0  0  0  0  0  0
  -20.5236    0.2606   15.1839 C   0  0  0  0  0  0  0  0  0  0  0  0
  -19.8572   -0.7924   14.5457 C   0  0  0  0  0  0  0  0  0  0  0  0
  -20.0071   -2.1840   14.5734 N   0  3  0  0  0  0  0  0  0  0  0  0
  -20.9649   -2.9090   15.3626 C   0  0  0  0  0  0  0  0  0  0  0  0
  -21.4285   -2.3122   16.4685 N   0  0  0  0  0  0  0  0  0  0  0  0
  -22.3170   -3.0092   17.1677 C   0  0  0  0  0  0  0  0  0  0  0  0
  -22.7646   -4.2215   16.8381 N   0  0  0  0  0  0  0  0  0  0  0  0
  -22.2626   -4.7440   15.7159 C   0  0  0  0  0  0  0  0  0  0  0  0
  -21.3559   -4.1254   14.9555 N   0  0  0  0  0  0  0  0  0  0  0  0
  -22.6930   -5.9962   15.3175 N   0  0  0  0  0  0  0  0  0  0  0  0
  -20.7616    2.6649   15.5408 C   0  0  0  0  0  0  0  0  0  0  0  0
  -21.2949    3.6199   16.0742 C   0  0  0  0  0  0  0  0  0  0  0  0
  -21.9522    4.7484   16.7040 C   0  0  0  0  0  0  0  0  0  0  0  0
  -23.4634    4.5347   16.6476 C   0  0  0  0  0  0  0  0  0  0  0  0
  -24.1813    5.7423   17.2373 C   0  0  0  0  0  0  0  0  0  0  0  0
  -23.7322    5.9288   18.6838 C   0  0  0  0  0  0  0  0  0  0  0  0
  -22.2181    6.1334   18.7473 C   0  0  0  0  0  0  0  0  0  0  0  0
  -21.5064    4.9148   18.1587 C   0  0  0  0  0  0  0  0  0  0  0  0
  -21.6640    5.9496   15.9770 O   0  0  0  0  0  0  0  0  0  0  0  0
  -17.9722   -4.2031   12.6470 H   0  0  0  0  0  0  0  0  0  0  0  0
  -19.6848   -4.5923   12.9376 H   0  0  0  0  0  0  0  0  0  0  0  0
  -18.5044   -4.6793   14.2791 H   0  0  0  0  0  0  0  0  0  0  0  0
  -17.6146    1.0036   12.7005 H   0  0  0  0  0  0  0  0  0  0  0  0
  -18.7693    2.8515   13.8209 H   0  0  0  0  0  0  0  0  0  0  0  0
  -21.3281    0.0644   15.8756 H   0  0  0  0  0  0  0  0  0  0  0  0
  -22.7107   -2.5443   18.0789 H   0  0  0  0  0  0  0  0  0  0  0  0
  -23.3742   -6.4988   15.8710 H   0  0  0  0  0  0  0  0  0  0  0  0
  -22.3284   -6.4107   14.4694 H   0  0  0  0  0  0  0  0  0  0  0  0
  -23.7241    3.6351   17.2256 H   0  0  0  0  0  0  0  0  0  0  0  0
  -23.7802    4.3867   15.6078 H   0  0  0  0  0  0  0  0  0  0  0  0
  -25.2634    5.5930   17.1946 H   0  0  0  0  0  0  0  0  0  0  0  0
  -23.9279    6.6426   16.6575 H   0  0  0  0  0  0  0  0  0  0  0  0
  -23.9987    5.0299   19.2596 H   0  0  0  0  0  0  0  0  0  0  0  0
  -24.2423    6.7915   19.1196 H   0  0  0  0  0  0  0  0  0  0  0  0
  -21.9069    6.2896   19.7819 H   0  0  0  0  0  0  0  0  0  0  0  0
  -21.9509    7.0260   18.1610 H   0  0  0  0  0  0  0  0  0  0  0  0
  -20.4177    5.0534   18.2165 H   0  0  0  0  0  0  0  0  0  0  0  0
  -21.7701    4.0157   18.7405 H   0  0  0  0  0  0  0  0  0  0  0  0
  -20.7087    6.1121   16.0173 H   0  0  0  0  0  0  0  0  0  0  0  0
  1  2  1  0  0  0  0
  1 27  1  0  0  0  0
  1 28  1  0  0  0  0
  1 29  1  0  0  0  0
  2  3  1  0  0  0  0
  2 10  2  0  0  0  0
  3  4  1  0  0  0  0
  4  5  2  0  0  0  0
  4  9  1  0  0  0  0
  5  6  1  0  0  0  0
  5 30  1  0  0  0  0
  6  7  2  0  0  0  0
  6 31  1  0  0  0  0
  7  8  1  0  0  0  0
  7 18  1  0  0  0  0
  8  9  2  0  0  0  0
  8 32  1  0  0  0  0
  9 10  1  0  0  0  0
 10 11  1  0  0  0  0
 11 12  2  0  0  0  0
 11 16  1  0  0  0  0
 12 13  1  0  0  0  0
 13 14  2  0  0  0  0
 13 33  1  0  0  0  0
 14 15  1  0  0  0  0
 15 16  2  0  0  0  0
 15 17  1  0  0  0  0
 17 34  1  0  0  0  0
 17 35  1  0  0  0  0
 18 19  3  0  0  0  0
 19 20  1  0  0  0  0
 20 21  1  0  0  0  0
 20 25  1  0  0  0  0
 20 26  1  0  0  0  0
 21 22  1  0  0  0  0
 21 36  1  0  0  0  0
 21 37  1  0  0  0  0
 22 23  1  0  0  0  0
 22 38  1  0  0  0  0
 22 39  1  0  0  0  0
 23 24  1  0  0  0  0
 23 40  1  0  0  0  0
 23 41  1  0  0  0  0
 24 25  1  0  0  0  0
 24 42  1  0  0  0  0
 24 43  1  0  0  0  0
 25 44  1  0  0  0  0
 25 45  1  0  0  0  0
 26 46  1  0  0  0  0
M  CHG  1  10   1
M  END
$$$$
