2P9
 OpenBabel04111920433D

 60 64  0  0  1  0  0  0  0  0999 V2000
   -7.2767   10.1178   -3.1963 O   0  0  0  0  0  0  0  0  0  0  0  0
   -6.1209   10.6407   -3.2696 C   0  0  0  0  0  0  0  0  0  0  0  0
   -5.2948   10.6997   -2.0135 C   0  0  0  0  0  0  0  0  0  0  0  0
   -5.7019   10.3243   -0.7864 N   0  0  0  0  0  0  0  0  0  0  0  0
   -4.6443   10.5257    0.0027 N   0  3  0  0  0  0  0  0  0  0  0  0
   -4.7339   10.1132    1.3441 C   0  0  0  0  0  0  0  0  0  0  0  0
   -4.2033    8.8735    1.7048 C   0  0  0  0  0  0  0  0  0  0  0  0
   -4.2928    8.4638    3.0345 C   0  0  0  0  0  0  0  0  0  0  0  0
   -3.6469    6.9138    3.4393 Cl  0  0  0  0  0  0  0  0  0  0  0  0
   -4.8847    9.3041    3.9905 C   0  0  0  0  0  0  0  0  0  0  0  0
   -4.9886    8.8704    5.6613 Cl  0  0  0  0  0  0  0  0  0  0  0  0
   -5.4098   10.5466    3.6118 C   0  0  0  0  0  0  0  0  0  0  0  0
   -5.3586   10.9468    2.2777 C   0  0  0  0  0  0  0  0  0  0  0  0
   -3.5424   11.0558   -0.6574 C   0  0  0  0  0  0  0  0  0  0  0  0
   -2.2755   11.4311   -0.0370 C   0  0  0  0  0  0  0  0  0  0  0  0
   -2.2199   11.9851    1.2441 C   0  0  0  0  0  0  0  0  0  0  0  0
   -1.0202   12.3731    1.8255 C   0  0  0  0  0  0  0  0  0  0  0  0
    0.1623   12.2545    1.1019 C   0  0  0  0  0  0  0  0  0  0  0  0
    1.4443   12.7024    1.7273 C   0  0  0  0  0  0  0  0  0  0  0  0
    2.5375   11.7398    1.4626 N   0  3  0  0  0  0  0  0  0  0  0  0
    2.9433   10.8719    2.5817 C   0  0  2  0  0  0  0  0  0  0  0  0
    3.9893    9.8777    2.1654 C   0  0  0  0  0  0  0  0  0  0  0  0
    5.1720    9.8797    2.9145 C   0  0  0  0  0  0  0  0  0  0  0  0
    6.2032    9.0060    2.6143 C   0  0  0  0  0  0  0  0  0  0  0  0
    6.0743    8.0958    1.5654 C   0  0  0  0  0  0  0  0  0  0  0  0
    7.1710    7.1857    1.2851 C   0  0  0  0  0  0  0  0  0  0  0  0
    8.3606    6.8723    1.8998 C   0  0  0  0  0  0  0  0  0  0  0  0
    8.9572    5.8638    1.1073 C   0  0  0  0  0  0  0  0  0  0  0  0
    8.0927    5.6191    0.0544 C   0  0  0  0  0  0  0  0  0  0  0  0
    8.2672    4.6385   -1.0357 C   0  0  0  0  0  0  0  0  0  0  0  0
    9.3311    3.9270   -1.0029 O   0  0  0  0  0  0  0  0  0  0  0  0
    7.3443    4.5862   -1.9091 O   0  0  0  0  0  0  0  0  0  0  0  0
    7.0091    6.4367    0.1735 O   0  0  0  0  0  0  0  0  0  0  0  0
    4.8986    8.0860    0.8006 C   0  0  0  0  0  0  0  0  0  0  0  0
    3.8644    8.9610    1.0977 C   0  0  0  0  0  0  0  0  0  0  0  0
    2.4562    8.9064    0.0921 Cl  0  0  0  0  0  0  0  0  0  0  0  0
    1.5341   10.0905    3.3835 S   0  0  0  0  0  0  0  0  0  0  0  0
    0.1194   11.7240   -0.1998 C   0  0  0  0  0  0  0  0  0  0  0  0
   -1.0796   11.2918   -0.7534 C   0  0  0  0  0  0  0  0  0  0  0  0
   -3.9568   11.1718   -1.9743 C   0  0  0  0  0  0  0  0  0  0  0  0
   -5.5860   11.1315   -4.3194 O   0  0  0  0  0  0  0  0  0  0  0  0
   -3.7603    8.2292    0.9485 H   0  0  0  0  0  0  0  0  0  0  0  0
   -5.8658   11.2018    4.3499 H   0  0  0  0  0  0  0  0  0  0  0  0
   -5.7693   11.9085    1.9740 H   0  0  0  0  0  0  0  0  0  0  0  0
   -3.1222   12.1529    1.8213 H   0  0  0  0  0  0  0  0  0  0  0  0
   -1.0392   12.7668    2.8398 H   0  0  0  0  0  0  0  0  0  0  0  0
    1.3522   12.8274    2.8130 H   0  0  0  0  0  0  0  0  0  0  0  0
    1.7437   13.6745    1.3221 H   0  0  0  0  0  0  0  0  0  0  0  0
    2.2560   11.0909    0.7192 H   0  0  0  0  0  0  0  0  0  0  0  0
    3.3827   11.5668    3.3030 H   0  0  0  0  0  0  0  0  0  0  0  0
    5.3096   10.5616    3.7476 H   0  0  0  0  0  0  0  0  0  0  0  0
    7.1077    9.0351    3.2189 H   0  0  0  0  0  0  0  0  0  0  0  0
    8.7606    7.3088    2.8035 H   0  0  0  0  0  0  0  0  0  0  0  0
    9.9065    5.3510    1.2702 H   0  0  0  0  0  0  0  0  0  0  0  0
    4.8030    7.3781   -0.0227 H   0  0  0  0  0  0  0  0  0  0  0  0
    2.2031    9.5653    4.4205 H   0  0  0  0  0  0  0  0  0  0  0  0
    1.0102   11.6189   -0.8153 H   0  0  0  0  0  0  0  0  0  0  0  0
   -1.0781   10.8579   -1.7522 H   0  0  0  0  0  0  0  0  0  0  0  0
   -3.3900   11.5569   -2.8142 H   0  0  0  0  0  0  0  0  0  0  0  0
    3.3550   12.2345    1.0953 H   0  0  0  0  0  0  0  0  0  0  0  0
  1  2  2  0  0  0  0
  2  3  1  0  0  0  0
  2 41  1  0  0  0  0
  3  4  1  0  0  0  0
  3 40  2  0  0  0  0
  4  5  1  0  0  0  0
  5  6  1  0  0  0  0
  5 14  2  0  0  0  0
  6  7  2  0  0  0  0
  6 13  1  0  0  0  0
  7  8  1  0  0  0  0
  7 42  1  0  0  0  0
  8  9  1  0  0  0  0
  8 10  2  0  0  0  0
 10 11  1  0  0  0  0
 10 12  1  0  0  0  0
 12 13  2  0  0  0  0
 12 43  1  0  0  0  0
 13 44  1  0  0  0  0
 14 15  1  0  0  0  0
 14 40  1  0  0  0  0
 15 16  2  0  0  0  0
 15 39  1  0  0  0  0
 16 17  1  0  0  0  0
 16 45  1  0  0  0  0
 17 18  2  0  0  0  0
 17 46  1  0  0  0  0
 18 19  1  0  0  0  0
 18 38  1  0  0  0  0
 19 20  1  0  0  0  0
 19 47  1  0  0  0  0
 19 48  1  0  0  0  0
 20 21  1  0  0  0  0
 20 49  1  0  0  0  0
 20 60  1  0  0  0  0
 21 22  1  0  0  0  0
 21 37  1  0  0  0  0
 21 50  1  1  0  0  0
 22 23  2  0  0  0  0
 22 35  1  0  0  0  0
 23 24  1  0  0  0  0
 23 51  1  0  0  0  0
 24 25  2  0  0  0  0
 24 52  1  0  0  0  0
 25 26  1  0  0  0  0
 25 34  1  0  0  0  0
 26 27  2  0  0  0  0
 26 33  1  0  0  0  0
 27 28  1  0  0  0  0
 27 53  1  0  0  0  0
 28 29  2  0  0  0  0
 28 54  1  0  0  0  0
 29 30  1  0  0  0  0
 29 33  1  0  0  0  0
 30 31  2  0  0  0  0
 30 32  1  0  0  0  0
 34 35  2  0  0  0  0
 34 55  1  0  0  0  0
 35 36  1  0  0  0  0
 37 56  1  0  0  0  0
 38 39  2  0  0  0  0
 38 57  1  0  0  0  0
 39 58  1  0  0  0  0
 40 59  1  0  0  0  0
M  CHG  2   5   1  20   1
M  END
$$$$
