2PG
 OpenBabel04111921503D

 15 14  0  0  1  0  0  0  0  0999 V2000
   46.2240   15.5921   -8.8850 C   0  0  0  0  0  0  0  0  0  0  0  0
   46.4319   15.5452  -10.4239 C   0  0  2  0  0  0  0  0  0  0  0  0
   46.7256   14.0531  -10.7125 C   0  0  0  0  0  0  0  0  0  0  0  0
   47.5869   16.8801  -12.4766 P   0  0  0  0  0  0  0  0  0  0  0  0
   45.0383   15.2000   -8.5040 O   0  0  0  0  0  0  0  0  0  0  0  0
   47.1939   15.7650   -8.1092 O   0  0  0  0  0  0  0  0  0  0  0  0
   46.8722   13.1654   -9.5755 O   0  0  0  0  0  0  0  0  0  0  0  0
   47.4911   16.4208  -10.8919 O   0  0  0  0  0  0  0  0  0  0  0  0
   46.7716   15.8625  -13.2567 O   0  0  0  0  0  0  0  0  0  0  0  0
   49.0840   16.8437  -12.7993 O   0  0  0  0  0  0  0  0  0  0  0  0
   47.0087   18.2982  -12.5361 O   0  0  0  0  0  0  0  0  0  0  0  0
   45.4985   15.8314  -10.9260 H   0  0  0  0  0  0  0  0  0  0  0  0
   47.6208   13.9425  -11.3311 H   0  0  0  0  0  0  0  0  0  0  0  0
   45.8881   13.6219  -11.2693 H   0  0  0  0  0  0  0  0  0  0  0  0
   46.1244   13.3774   -8.9887 H   0  0  0  0  0  0  0  0  0  0  0  0
  1  2  1  0  0  0  0
  1  5  2  0  0  0  0
  1  6  1  0  0  0  0
  2  3  1  0  0  0  0
  2  8  1  0  0  0  0
  2 12  1  6  0  0  0
  3  7  1  0  0  0  0
  3 13  1  0  0  0  0
  3 14  1  0  0  0  0
  4 11  2  0  0  0  0
  4 10  1  0  0  0  0
  4  9  1  0  0  0  0
  4  8  1  0  0  0  0
  7 15  1  0  0  0  0
M  END
$$$$
