2Q9
 OpenBabel04111920423D

 67 71  0  0  1  0  0  0  0  0999 V2000
    0.7132   -9.0987  -26.3527 N   0  0  0  0  0  0  0  0  0  0  0  0
    0.8073   -7.9957  -28.5206 C   0  0  0  0  0  0  0  0  0  0  0  0
    9.0464  -11.7441  -23.8491 O   0  0  0  0  0  0  0  0  0  0  0  0
    7.8978  -12.1758  -24.0219 C   0  0  0  0  0  0  0  0  0  0  0  0
    7.6622  -13.6200  -24.4128 C   0  0  0  0  0  0  0  0  0  0  0  0
    6.4156  -13.8304  -25.2876 C   0  0  0  0  0  0  0  0  0  0  0  0
    6.1641  -15.3385  -25.4438 C   0  0  0  0  0  0  0  0  0  0  0  0
    6.6451  -13.2443  -26.6835 C   0  0  0  0  0  0  0  0  0  0  0  0
    5.1831  -13.1761  -24.6177 C   0  0  0  0  0  0  0  0  0  0  0  0
    5.4711  -11.7918  -24.1081 C   0  0  1  0  0  0  0  0  0  0  0  0
    6.7383  -11.3130  -23.8314 C   0  0  2  0  0  0  0  0  0  0  0  0
    6.5993   -9.9572  -23.4433 C   0  0  1  0  0  0  0  0  0  0  0  0
    7.6229   -8.9473  -23.0492 C   0  0  0  0  0  0  0  0  0  0  0  0
    7.0615   -7.5202  -23.0636 C   0  0  0  0  0  0  0  0  0  0  0  0
    5.6836   -7.4312  -22.4526 N   0  3  1  0  0  0  0  0  0  0  0  0
    5.2132   -6.0098  -22.3972 C   0  0  0  0  0  0  0  0  0  0  0  0
    4.6820   -8.3070  -23.1917 C   0  0  0  0  0  0  0  0  0  0  0  0
    5.2470   -9.6448  -23.5035 C   0  0  1  0  0  0  0  0  0  0  0  0
    4.5434  -10.7736  -23.9182 N   0  3  1  0  0  0  0  0  0  0  0  0
    3.1573  -10.8563  -24.1954 C   0  0  1  0  0  0  0  0  0  0  0  0
    2.5943   -9.9516  -25.0967 C   0  0  0  0  0  0  0  0  0  0  0  0
    2.3755  -11.8458  -23.6004 C   0  0  0  0  0  0  0  0  0  0  0  0
    1.0170  -11.9407  -23.9215 C   0  0  2  0  0  0  0  0  0  0  0  0
    0.1959  -13.0526  -23.3088 C   0  0  0  0  0  0  0  0  0  0  0  0
   -1.2702  -12.6737  -23.2276 C   0  0  0  0  0  0  0  0  0  0  0  0
   -1.7309  -12.0619  -24.4512 N   0  0  0  0  0  0  0  0  0  0  0  0
   -0.9770  -11.2472  -25.2762 C   0  0  0  0  0  0  0  0  0  0  0  0
   -1.4517  -10.7520  -26.2799 O   0  0  0  0  0  0  0  0  0  0  0  0
    0.4575  -11.0429  -24.8638 C   0  0  2  0  0  0  0  0  0  0  0  0
    1.2387  -10.0122  -25.4542 C   0  0  2  0  0  0  0  0  0  0  0  0
    1.4601   -8.1449  -27.1597 C   0  0  0  0  0  0  0  0  0  0  0  0
    1.5377   -6.7977  -26.4613 C   0  0  0  0  0  0  0  0  0  0  0  0
   -0.2991   -9.1555  -26.5129 H   0  0  0  0  0  0  0  0  0  0  0  0
    1.3480   -7.2615  -29.1306 H   0  0  0  0  0  0  0  0  0  0  0  0
   -0.2330   -7.6679  -28.4157 H   0  0  0  0  0  0  0  0  0  0  0  0
    0.8209   -8.9595  -29.0391 H   0  0  0  0  0  0  0  0  0  0  0  0
    7.5564  -14.2160  -23.4942 H   0  0  0  0  0  0  0  0  0  0  0  0
    8.5468  -13.9714  -24.9589 H   0  0  0  0  0  0  0  0  0  0  0  0
    5.2828  -15.5173  -26.0709 H   0  0  0  0  0  0  0  0  0  0  0  0
    5.9894  -15.7988  -24.4639 H   0  0  0  0  0  0  0  0  0  0  0  0
    7.0268  -15.8336  -25.9074 H   0  0  0  0  0  0  0  0  0  0  0  0
    6.8332  -12.1706  -26.6173 H   0  0  0  0  0  0  0  0  0  0  0  0
    5.7628  -13.4036  -27.3139 H   0  0  0  0  0  0  0  0  0  0  0  0
    7.5061  -13.7185  -27.1692 H   0  0  0  0  0  0  0  0  0  0  0  0
    4.8907  -13.8042  -23.7688 H   0  0  0  0  0  0  0  0  0  0  0  0
    4.3730  -13.1513  -25.3502 H   0  0  0  0  0  0  0  0  0  0  0  0
    8.4571   -8.9745  -23.7517 H   0  0  0  0  0  0  0  0  0  0  0  0
    7.9979   -9.1727  -22.0459 H   0  0  0  0  0  0  0  0  0  0  0  0
    6.9607   -7.1600  -24.0923 H   0  0  0  0  0  0  0  0  0  0  0  0
    7.7036   -6.8477  -22.4851 H   0  0  0  0  0  0  0  0  0  0  0  0
    4.2214   -6.0004  -21.9440 H   0  0  0  0  0  0  0  0  0  0  0  0
    5.1786   -5.6231  -23.4183 H   0  0  0  0  0  0  0  0  0  0  0  0
    5.9193   -5.4386  -21.7913 H   0  0  0  0  0  0  0  0  0  0  0  0
    4.4555   -7.7619  -24.1117 H   0  0  0  0  0  0  0  0  0  0  0  0
    3.8132   -8.3626  -22.5328 H   0  0  0  0  0  0  0  0  0  0  0  0
    3.2341   -9.2114  -25.5637 H   0  0  0  0  0  0  0  0  0  0  0  0
    2.8028  -12.5250  -22.8667 H   0  0  0  0  0  0  0  0  0  0  0  0
    0.5584  -13.2685  -22.2959 H   0  0  0  0  0  0  0  0  0  0  0  0
    0.3005  -13.9610  -23.9167 H   0  0  0  0  0  0  0  0  0  0  0  0
   -1.4278  -11.9739  -22.3993 H   0  0  0  0  0  0  0  0  0  0  0  0
   -1.8729  -13.5704  -23.0488 H   0  0  0  0  0  0  0  0  0  0  0  0
   -2.6928  -12.1867  -24.7528 H   0  0  0  0  0  0  0  0  0  0  0  0
    2.4848   -8.4915  -27.3310 H   0  0  0  0  0  0  0  0  0  0  0  0
    2.0942   -6.0778  -27.0751 H   0  0  0  0  0  0  0  0  0  0  0  0
    2.0555   -6.9052  -25.5032 H   0  0  0  0  0  0  0  0  0  0  0  0
    0.5346   -6.3971  -26.2758 H   0  0  0  0  0  0  0  0  0  0  0  0
    5.7494   -7.7857  -21.4925 H   0  0  0  0  0  0  0  0  0  0  0  0
  1 31  1  0  0  0  0
  1 33  1  0  0  0  0
  2 31  1  0  0  0  0
  2 34  1  0  0  0  0
  2 35  1  0  0  0  0
  2 36  1  0  0  0  0
  3  4  2  0  0  0  0
  4  5  1  0  0  0  0
  5  6  1  0  0  0  0
  5 37  1  0  0  0  0
  5 38  1  0  0  0  0
  6  7  1  0  0  0  0
  6  8  1  0  0  0  0
  6  9  1  0  0  0  0
  7 39  1  0  0  0  0
  7 40  1  0  0  0  0
  7 41  1  0  0  0  0
  8 42  1  0  0  0  0
  8 43  1  0  0  0  0
  8 44  1  0  0  0  0
  9 45  1  0  0  0  0
  9 46  1  0  0  0  0
 10  9  1  6  0  0  0
 10 11  1  0  0  0  0
 10 19  1  0  0  0  0
 11  4  1  6  0  0  0
 11 12  1  0  0  0  0
 12 13  1  6  0  0  0
 12 18  1  0  0  0  0
 13 14  1  0  0  0  0
 13 47  1  0  0  0  0
 13 48  1  0  0  0  0
 14 15  1  0  0  0  0
 14 49  1  0  0  0  0
 14 50  1  0  0  0  0
 15 16  1  0  0  0  0
 15 17  1  0  0  0  0
 15 67  1  1  0  0  0
 16 51  1  0  0  0  0
 16 52  1  0  0  0  0
 16 53  1  0  0  0  0
 17 54  1  0  0  0  0
 17 55  1  0  0  0  0
 18 17  1  6  0  0  0
 18 19  1  0  0  0  0
 19 20  1  6  0  0  0
 20 21  1  6  0  0  0
 20 22  1  0  0  0  0
 21 30  1  0  0  0  0
 21 56  1  0  0  0  0
 22 57  1  0  0  0  0
 23 22  1  6  0  0  0
 23 24  1  0  0  0  0
 23 29  1  0  0  0  0
 24 25  1  0  0  0  0
 24 58  1  0  0  0  0
 24 59  1  0  0  0  0
 25 26  1  0  0  0  0
 25 60  1  0  0  0  0
 25 61  1  0  0  0  0
 26 27  1  0  0  0  0
 26 62  1  0  0  0  0
 27 28  2  0  0  0  0
 29 27  1  6  0  0  0
 29 30  1  0  0  0  0
 30  1  1  6  0  0  0
 31 32  1  0  0  0  0
 31 63  1  0  0  0  0
 32 64  1  0  0  0  0
 32 65  1  0  0  0  0
 32 66  1  0  0  0  0
M  CHG  2  15   1  19   1
M  END
$$$$
