2QE
 OpenBabel04111920413D

 30 29  0  0  1  0  0  0  0  0999 V2000
    2.8747   31.4247   12.7724 O   0  0  0  0  0  0  0  0  0  0  0  0
    2.3828   30.3919   13.3361 C   0  0  0  0  0  0  0  0  0  0  0  0
    1.2236   30.1507   13.7306 O   0  0  0  0  0  0  0  0  0  0  0  0
    3.4990   29.3166   13.5737 C   0  0  1  0  0  0  0  0  0  0  0  0
    4.8732   29.8909   13.2179 N   0  3  0  0  0  0  0  0  0  0  0  0
    3.5408   28.8316   15.0207 C   0  0  0  0  0  0  0  0  0  0  0  0
    4.3397   27.5296   15.2037 C   0  0  2  0  0  0  0  0  0  0  0  0
    3.5839   26.3259   14.5630 C   0  0  0  0  0  0  0  0  0  0  0  0
    2.3925   26.5119   14.2452 O   0  0  0  0  0  0  0  0  0  0  0  0
    4.3317   25.3262   14.3503 O   0  0  0  0  0  0  0  0  0  0  0  0
    4.6049   27.2455   16.6929 C   0  0  0  0  0  0  0  0  0  0  0  0
    5.6618   28.1649   17.3213 C   0  0  0  0  0  0  0  0  0  0  0  0
    7.0125   27.9827   16.6621 C   0  0  0  0  0  0  0  0  0  0  0  0
    7.6208   26.9246   16.6014 O   0  0  0  0  0  0  0  0  0  0  0  0
    7.4737   29.1459   16.1187 O   0  0  0  0  0  0  0  0  0  0  0  0
    8.6266   28.9739   15.2799 C   0  0  0  0  0  0  0  0  0  0  0  0
    3.3566   28.4958   12.8684 H   0  0  0  0  0  0  0  0  0  0  0  0
    5.6330   29.2264   13.3435 H   0  0  0  0  0  0  0  0  0  0  0  0
    4.7783   30.2208   12.2478 H   0  0  0  0  0  0  0  0  0  0  0  0
    2.5150   28.6658   15.3728 H   0  0  0  0  0  0  0  0  0  0  0  0
    3.9492   29.6207   15.6613 H   0  0  0  0  0  0  0  0  0  0  0  0
    5.3091   27.6075   14.6913 H   0  0  0  0  0  0  0  0  0  0  0  0
    4.9263   26.2013   16.8249 H   0  0  0  0  0  0  0  0  0  0  0  0
    3.6648   27.3469   17.2547 H   0  0  0  0  0  0  0  0  0  0  0  0
    5.7727   27.9437   18.3897 H   0  0  0  0  0  0  0  0  0  0  0  0
    5.3501   29.2150   17.2592 H   0  0  0  0  0  0  0  0  0  0  0  0
    8.9670   29.9574   14.9389 H   0  0  0  0  0  0  0  0  0  0  0  0
    8.3355   28.3958   14.3978 H   0  0  0  0  0  0  0  0  0  0  0  0
    9.4547   28.4865   15.8019 H   0  0  0  0  0  0  0  0  0  0  0  0
    4.9815   30.7590   13.7547 H   0  0  0  0  0  0  0  0  0  0  0  0
  1  2  2  0  0  0  0
  2  3  1  0  0  0  0
  2  4  1  0  0  0  0
  4  5  1  0  0  0  0
  4  6  1  0  0  0  0
  4 17  1  6  0  0  0
  5 18  1  0  0  0  0
  5 19  1  0  0  0  0
  5 30  1  0  0  0  0
  6  7  1  0  0  0  0
  6 20  1  0  0  0  0
  6 21  1  0  0  0  0
  7  8  1  0  0  0  0
  7 11  1  0  0  0  0
  7 22  1  6  0  0  0
  8  9  2  0  0  0  0
  8 10  1  0  0  0  0
 11 12  1  0  0  0  0
 11 23  1  0  0  0  0
 11 24  1  0  0  0  0
 12 13  1  0  0  0  0
 12 25  1  0  0  0  0
 12 26  1  0  0  0  0
 13 14  2  0  0  0  0
 13 15  1  0  0  0  0
 15 16  1  0  0  0  0
 16 27  1  0  0  0  0
 16 28  1  0  0  0  0
 16 29  1  0  0  0  0
M  CHG  1   5   1
M  END
$$$$
