2QM
 OpenBabel04111920513D

 55 56  0  0  1  0  0  0  0  0999 V2000
   13.9960   45.6315   41.2435 C   0  0  0  0  0  0  0  0  0  0  0  0
   13.0011   46.5352   40.8641 C   0  0  0  0  0  0  0  0  0  0  0  0
   13.3323   47.6540   40.1243 C   0  0  0  0  0  0  0  0  0  0  0  0
   12.3750   48.5285   39.7006 O   0  0  0  0  0  0  0  0  0  0  0  0
   14.6445   47.9056   39.7571 C   0  0  0  0  0  0  0  0  0  0  0  0
   15.6458   47.0104   40.1367 C   0  0  0  0  0  0  0  0  0  0  0  0
   15.3248   45.8498   40.8664 C   0  0  0  0  0  0  0  0  0  0  0  0
   16.4097   44.8589   41.2867 C   0  0  1  0  0  0  0  0  0  0  0  0
   17.4555   44.6978   40.1051 C   0  0  0  0  0  0  0  0  0  0  0  0
   17.1466   43.8231   39.2278 O   0  0  0  0  0  0  0  0  0  0  0  0
   18.4298   45.5136   40.0896 O   0  0  0  0  0  0  0  0  0  0  0  0
   16.9691   45.2654   42.5779 N   0  0  0  0  0  0  0  0  0  0  0  0
   18.0919   44.6335   43.0163 C   0  0  0  0  0  0  0  0  0  0  0  0
   18.4558   43.5267   42.6141 O   0  0  0  0  0  0  0  0  0  0  0  0
   18.7633   45.3342   43.9663 N   0  0  0  0  0  0  0  0  0  0  0  0
   19.9780   44.8470   44.6189 C   0  0  2  0  0  0  0  0  0  0  0  0
   20.2171   45.5470   45.9971 C   0  0  0  0  0  0  0  0  0  0  0  0
   19.6266   46.6641   46.1420 O   0  0  0  0  0  0  0  0  0  0  0  0
   20.9689   44.9385   46.8126 O   0  0  0  0  0  0  0  0  0  0  0  0
   21.2277   44.9767   43.7237 C   0  0  0  0  0  0  0  0  0  0  0  0
   21.6157   46.4251   43.4406 C   0  0  0  0  0  0  0  0  0  0  0  0
   22.9442   46.5279   42.6848 C   0  0  0  0  0  0  0  0  0  0  0  0
   23.5272   47.9352   42.8230 C   0  0  0  0  0  0  0  0  0  0  0  0
   23.7938   48.2716   44.2246 N   0  0  0  0  0  0  0  0  0  0  0  0
   23.2541   49.3931   44.8328 C   0  0  0  0  0  0  0  0  0  0  0  0
   22.7000   50.2946   44.2066 O   0  0  0  0  0  0  0  0  0  0  0  0
   23.4232   49.5451   46.3264 C   0  0  0  0  0  0  0  0  0  0  0  0
   23.5580   50.8398   46.8491 C   0  0  0  0  0  0  0  0  0  0  0  0
   23.6822   51.0569   48.2348 C   0  0  0  0  0  0  0  0  0  0  0  0
   23.6386   49.9759   49.1130 C   0  0  0  0  0  0  0  0  0  0  0  0
   23.7614   50.2949   51.1649 I   0  0  0  0  0  0  0  0  0  0  0  0
   23.4888   48.6782   48.6027 C   0  0  0  0  0  0  0  0  0  0  0  0
   23.3936   48.4629   47.2140 C   0  0  0  0  0  0  0  0  0  0  0  0
   13.7405   44.7466   41.8189 H   0  0  0  0  0  0  0  0  0  0  0  0
   11.9747   46.3514   41.1723 H   0  0  0  0  0  0  0  0  0  0  0  0
   11.6951   47.9779   39.2810 H   0  0  0  0  0  0  0  0  0  0  0  0
   14.9090   48.7958   39.1758 H   0  0  0  0  0  0  0  0  0  0  0  0
   16.6709   47.2015   39.8298 H   0  0  0  0  0  0  0  0  0  0  0  0
   15.9473   43.8773   41.4541 H   0  0  0  0  0  0  0  0  0  0  0  0
   16.6596   46.1018   43.0276 H   0  0  0  0  0  0  0  0  0  0  0  0
   18.4687   46.2582   44.2547 H   0  0  0  0  0  0  0  0  0  0  0  0
   19.8229   43.7768   44.8038 H   0  0  0  0  0  0  0  0  0  0  0  0
   21.0826   44.4575   42.7691 H   0  0  0  0  0  0  0  0  0  0  0  0
   22.0711   44.4826   44.2243 H   0  0  0  0  0  0  0  0  0  0  0  0
   21.7024   46.9512   44.3932 H   0  0  0  0  0  0  0  0  0  0  0  0
   20.8319   46.9315   42.8664 H   0  0  0  0  0  0  0  0  0  0  0  0
   22.7839   46.2851   41.6273 H   0  0  0  0  0  0  0  0  0  0  0  0
   23.6642   45.7919   43.0708 H   0  0  0  0  0  0  0  0  0  0  0  0
   22.8465   48.6569   42.3684 H   0  0  0  0  0  0  0  0  0  0  0  0
   24.4801   47.9795   42.2866 H   0  0  0  0  0  0  0  0  0  0  0  0
   24.2234   47.5588   44.7973 H   0  0  0  0  0  0  0  0  0  0  0  0
   23.5562   51.6951   46.1777 H   0  0  0  0  0  0  0  0  0  0  0  0
   23.7884   52.0677   48.6085 H   0  0  0  0  0  0  0  0  0  0  0  0
   23.4113   47.8264   49.2786 H   0  0  0  0  0  0  0  0  0  0  0  0
   23.2251   47.4503   46.8612 H   0  0  0  0  0  0  0  0  0  0  0  0
  1  2  2  0  0  0  0
  1  7  1  0  0  0  0
  1 34  1  0  0  0  0
  2  3  1  0  0  0  0
  2 35  1  0  0  0  0
  3  4  1  0  0  0  0
  3  5  2  0  0  0  0
  4 36  1  0  0  0  0
  5  6  1  0  0  0  0
  5 37  1  0  0  0  0
  6  7  2  0  0  0  0
  6 38  1  0  0  0  0
  7  8  1  0  0  0  0
  8  9  1  0  0  0  0
  8 12  1  0  0  0  0
  8 39  1  1  0  0  0
  9 10  2  0  0  0  0
  9 11  1  0  0  0  0
 12 13  1  0  0  0  0
 12 40  1  0  0  0  0
 13 14  2  0  0  0  0
 13 15  1  0  0  0  0
 15 16  1  0  0  0  0
 15 41  1  0  0  0  0
 16 17  1  0  0  0  0
 16 20  1  0  0  0  0
 16 42  1  1  0  0  0
 17 18  2  0  0  0  0
 17 19  1  0  0  0  0
 20 21  1  0  0  0  0
 20 43  1  0  0  0  0
 20 44  1  0  0  0  0
 21 22  1  0  0  0  0
 21 45  1  0  0  0  0
 21 46  1  0  0  0  0
 22 23  1  0  0  0  0
 22 47  1  0  0  0  0
 22 48  1  0  0  0  0
 23 24  1  0  0  0  0
 23 49  1  0  0  0  0
 23 50  1  0  0  0  0
 24 25  1  0  0  0  0
 24 51  1  0  0  0  0
 25 26  2  0  0  0  0
 25 27  1  0  0  0  0
 27 28  2  0  0  0  0
 27 33  1  0  0  0  0
 28 29  1  0  0  0  0
 28 52  1  0  0  0  0
 29 30  2  0  0  0  0
 29 53  1  0  0  0  0
 30 31  1  0  0  0  0
 30 32  1  0  0  0  0
 32 33  2  0  0  0  0
 32 54  1  0  0  0  0
 33 55  1  0  0  0  0
M  END
$$$$
