2QS
 OpenBabel04111920483D

 52 53  0  0  1  0  0  0  0  0999 V2000
   12.9266   47.6643   40.7177 C   0  0  0  0  0  0  0  0  0  0  0  0
   13.2322   47.0236   39.5032 O   0  0  0  0  0  0  0  0  0  0  0  0
   13.4602   46.2394   40.6963 C   0  0  1  0  0  0  0  0  0  0  0  0
   14.7992   46.2191   41.4078 C   0  0  0  0  0  0  0  0  0  0  0  0
   15.8830   45.1290   41.3300 C   0  0  1  0  0  0  0  0  0  0  0  0
   16.7749   45.0207   40.0343 C   0  0  0  0  0  0  0  0  0  0  0  0
   17.5861   45.9902   39.8710 O   0  0  0  0  0  0  0  0  0  0  0  0
   16.6249   43.9856   39.3353 O   0  0  0  0  0  0  0  0  0  0  0  0
   16.7888   45.5544   42.4381 N   0  0  0  0  0  0  0  0  0  0  0  0
   18.0400   45.0351   42.6295 C   0  0  0  0  0  0  0  0  0  0  0  0
   18.4609   44.0434   42.1364 O   0  0  0  0  0  0  0  0  0  0  0  0
   18.6879   45.7687   43.5739 N   0  0  0  0  0  0  0  0  0  0  0  0
   20.0117   45.4579   44.0842 C   0  0  2  0  0  0  0  0  0  0  0  0
   20.1458   46.0446   45.5170 C   0  0  0  0  0  0  0  0  0  0  0  0
   20.7275   45.2974   46.3682 O   0  0  0  0  0  0  0  0  0  0  0  0
   19.6905   47.2185   45.6696 O   0  0  0  0  0  0  0  0  0  0  0  0
   21.0768   46.1061   43.1920 C   0  0  0  0  0  0  0  0  0  0  0  0
   22.3786   46.3052   43.9525 C   0  0  0  0  0  0  0  0  0  0  0  0
   23.4876   46.8730   43.0859 C   0  0  0  0  0  0  0  0  0  0  0  0
   23.7436   48.3355   43.4460 C   0  0  0  0  0  0  0  0  0  0  0  0
   23.7769   48.5524   44.8952 N   0  0  0  0  0  0  0  0  0  0  0  0
   23.2928   49.6977   45.4739 C   0  0  0  0  0  0  0  0  0  0  0  0
   22.8876   50.6577   44.8503 O   0  0  0  0  0  0  0  0  0  0  0  0
   23.3093   49.7196   46.9719 C   0  0  0  0  0  0  0  0  0  0  0  0
   23.6507   50.8670   47.7005 C   0  0  0  0  0  0  0  0  0  0  0  0
   23.5985   50.8532   49.1032 C   0  0  0  0  0  0  0  0  0  0  0  0
   23.1829   49.6897   49.7495 C   0  0  0  0  0  0  0  0  0  0  0  0
   23.0398   49.5680   51.8063 I   0  0  0  0  0  0  0  0  0  0  0  0
   22.8342   48.5569   49.0240 C   0  0  0  0  0  0  0  0  0  0  0  0
   22.9041   48.5679   47.6399 C   0  0  0  0  0  0  0  0  0  0  0  0
   11.9047   47.8709   40.9917 H   0  0  0  0  0  0  0  0  0  0  0  0
   13.6184   48.4295   41.0694 H   0  0  0  0  0  0  0  0  0  0  0  0
   12.7879   45.4094   40.8982 H   0  0  0  0  0  0  0  0  0  0  0  0
   14.5454   46.3151   42.4898 H   0  0  0  0  0  0  0  0  0  0  0  0
   15.3114   47.1522   41.1336 H   0  0  0  0  0  0  0  0  0  0  0  0
   15.4887   44.1333   41.5919 H   0  0  0  0  0  0  0  0  0  0  0  0
   16.5869   46.4225   42.8962 H   0  0  0  0  0  0  0  0  0  0  0  0
   18.2724   46.6076   43.9336 H   0  0  0  0  0  0  0  0  0  0  0  0
   20.1617   44.3686   44.1063 H   0  0  0  0  0  0  0  0  0  0  0  0
   20.7133   47.0778   42.8280 H   0  0  0  0  0  0  0  0  0  0  0  0
   21.2669   45.4729   42.3143 H   0  0  0  0  0  0  0  0  0  0  0  0
   22.6906   45.3512   44.3872 H   0  0  0  0  0  0  0  0  0  0  0  0
   22.1721   46.9901   44.7795 H   0  0  0  0  0  0  0  0  0  0  0  0
   23.2204   46.7919   42.0253 H   0  0  0  0  0  0  0  0  0  0  0  0
   24.4052   46.2906   43.2458 H   0  0  0  0  0  0  0  0  0  0  0  0
   22.9731   48.9644   42.9868 H   0  0  0  0  0  0  0  0  0  0  0  0
   24.7209   48.6469   43.0614 H   0  0  0  0  0  0  0  0  0  0  0  0
   24.0161   47.7722   45.4934 H   0  0  0  0  0  0  0  0  0  0  0  0
   23.9526   51.7688   47.1763 H   0  0  0  0  0  0  0  0  0  0  0  0
   23.8650   51.7408   49.6708 H   0  0  0  0  0  0  0  0  0  0  0  0
   22.4936   47.6578   49.5302 H   0  0  0  0  0  0  0  0  0  0  0  0
   22.6052   47.6801   47.0830 H   0  0  0  0  0  0  0  0  0  0  0  0
  1  2  1  0  0  0  0
  1  3  1  0  0  0  0
  1 31  1  0  0  0  0
  1 32  1  0  0  0  0
  2  3  1  0  0  0  0
  3  4  1  0  0  0  0
  3 33  1  1  0  0  0
  4  5  1  0  0  0  0
  4 34  1  0  0  0  0
  4 35  1  0  0  0  0
  5  6  1  0  0  0  0
  5  9  1  0  0  0  0
  5 36  1  1  0  0  0
  6  7  2  0  0  0  0
  6  8  1  0  0  0  0
  9 10  1  0  0  0  0
  9 37  1  0  0  0  0
 10 11  2  0  0  0  0
 10 12  1  0  0  0  0
 12 13  1  0  0  0  0
 12 38  1  0  0  0  0
 13 14  1  0  0  0  0
 13 17  1  0  0  0  0
 13 39  1  1  0  0  0
 14 15  2  0  0  0  0
 14 16  1  0  0  0  0
 17 18  1  0  0  0  0
 17 40  1  0  0  0  0
 17 41  1  0  0  0  0
 18 19  1  0  0  0  0
 18 42  1  0  0  0  0
 18 43  1  0  0  0  0
 19 20  1  0  0  0  0
 19 44  1  0  0  0  0
 19 45  1  0  0  0  0
 20 21  1  0  0  0  0
 20 46  1  0  0  0  0
 20 47  1  0  0  0  0
 21 22  1  0  0  0  0
 21 48  1  0  0  0  0
 22 23  2  0  0  0  0
 22 24  1  0  0  0  0
 24 25  2  0  0  0  0
 24 30  1  0  0  0  0
 25 26  1  0  0  0  0
 25 49  1  0  0  0  0
 26 27  2  0  0  0  0
 26 50  1  0  0  0  0
 27 28  1  0  0  0  0
 27 29  1  0  0  0  0
 29 30  2  0  0  0  0
 29 51  1  0  0  0  0
 30 52  1  0  0  0  0
M  END
$$$$
