2S6
 OpenBabel04111920523D

 66 69  0  0  1  0  0  0  0  0999 V2000
  -10.7126   19.2379  -13.3737 C   0  0  0  0  0  0  0  0  0  0  0  0
  -10.1552   20.4143  -13.8726 C   0  0  0  0  0  0  0  0  0  0  0  0
   -8.7730   20.5411  -13.9540 C   0  0  0  0  0  0  0  0  0  0  0  0
   -8.2064   21.7233  -14.4669 C   0  0  0  0  0  0  0  0  0  0  0  0
   -7.7582   22.7259  -14.9135 N   0  0  0  0  0  0  0  0  0  0  0  0
   -7.9679   19.4809  -13.5238 C   0  0  0  0  0  0  0  0  0  0  0  0
   -8.5331   18.2951  -13.0493 C   0  0  0  0  0  0  0  0  0  0  0  0
   -9.9108   18.1598  -12.9815 C   0  0  0  0  0  0  0  0  0  0  0  0
  -10.5606   17.0396  -12.5466 O   0  0  0  0  0  0  0  0  0  0  0  0
   -9.7953   15.8880  -12.1530 C   0  0  0  0  0  0  0  0  0  0  0  0
  -10.7307   15.0208  -11.3014 C   0  0  0  0  0  0  0  0  0  0  0  0
  -11.6110   14.2881  -12.2989 C   0  0  0  0  0  0  0  0  0  0  0  0
  -12.7245   13.5013  -11.6304 N   0  3  1  0  0  0  0  0  0  0  0  0
  -13.4723   12.6988  -12.6589 C   0  0  0  0  0  0  0  0  0  0  0  0
  -14.6315   11.9644  -12.0205 C   0  0  0  0  0  0  0  0  0  0  0  0
  -12.1409   12.4795  -10.6779 C   0  0  0  0  0  0  0  0  0  0  0  0
  -13.2376   11.7283   -9.9285 C   0  0  0  0  0  0  0  0  0  0  0  0
  -14.1043   10.9777  -10.9661 C   0  0  1  0  0  0  0  0  0  0  0  0
  -15.2154   10.0660  -10.3829 C   0  0  1  0  0  0  0  0  0  0  0  0
  -14.6222    9.0775   -9.3704 C   0  0  0  0  0  0  0  0  0  0  0  0
  -13.5216    8.1166   -9.8670 C   0  0  0  0  0  0  0  0  0  0  0  0
  -13.3033    7.2823   -8.6008 C   0  0  0  0  0  0  0  0  0  0  0  0
  -14.6738    7.2197   -7.8872 C   0  0  0  0  0  0  0  0  0  0  0  0
  -15.6164    8.1194   -8.6834 C   0  0  0  0  0  0  0  0  0  0  0  0
  -16.1453   10.9167   -9.7029 O   0  0  0  0  0  0  0  0  0  0  0  0
  -15.9397    9.3055  -11.4560 C   0  0  0  0  0  0  0  0  0  0  0  0
  -17.3273    9.1582  -11.4076 C   0  0  0  0  0  0  0  0  0  0  0  0
  -17.9824    8.4185  -12.3769 C   0  0  0  0  0  0  0  0  0  0  0  0
  -17.2552    7.8398  -13.4168 C   0  0  0  0  0  0  0  0  0  0  0  0
  -15.8787    7.9653  -13.4715 C   0  0  0  0  0  0  0  0  0  0  0  0
  -15.2336    8.7161  -12.5136 C   0  0  0  0  0  0  0  0  0  0  0  0
  -11.7944   19.1760  -13.2928 H   0  0  0  0  0  0  0  0  0  0  0  0
  -10.7916   21.2340  -14.2000 H   0  0  0  0  0  0  0  0  0  0  0  0
   -6.8917   19.5855  -13.5644 H   0  0  0  0  0  0  0  0  0  0  0  0
   -7.8833   17.4914  -12.7329 H   0  0  0  0  0  0  0  0  0  0  0  0
   -8.9142   16.1597  -11.5707 H   0  0  0  0  0  0  0  0  0  0  0  0
   -9.4792   15.3280  -13.0512 H   0  0  0  0  0  0  0  0  0  0  0  0
  -11.3499   15.6309  -10.6292 H   0  0  0  0  0  0  0  0  0  0  0  0
  -10.1606   14.3013  -10.6971 H   0  0  0  0  0  0  0  0  0  0  0  0
  -10.9938   13.5691  -12.8490 H   0  0  0  0  0  0  0  0  0  0  0  0
  -12.0430   15.0149  -12.9982 H   0  0  0  0  0  0  0  0  0  0  0  0
  -12.7520   11.9788  -13.0524 H   0  0  0  0  0  0  0  0  0  0  0  0
  -13.8220   13.3620  -13.4455 H   0  0  0  0  0  0  0  0  0  0  0  0
  -15.1541   11.4208  -12.8178 H   0  0  0  0  0  0  0  0  0  0  0  0
  -15.3279   12.6759  -11.5685 H   0  0  0  0  0  0  0  0  0  0  0  0
  -11.4721   12.9989   -9.9995 H   0  0  0  0  0  0  0  0  0  0  0  0
  -11.5615   11.7828  -11.3004 H   0  0  0  0  0  0  0  0  0  0  0  0
  -13.8358   12.4176   -9.3134 H   0  0  0  0  0  0  0  0  0  0  0  0
  -12.7559   11.0136   -9.2364 H   0  0  0  0  0  0  0  0  0  0  0  0
  -13.4174   10.3187  -11.5022 H   0  0  0  0  0  0  0  0  0  0  0  0
  -14.1689    9.7052   -8.5926 H   0  0  0  0  0  0  0  0  0  0  0  0
  -12.6026    8.6286  -10.1990 H   0  0  0  0  0  0  0  0  0  0  0  0
  -13.8611    7.4792  -10.7008 H   0  0  0  0  0  0  0  0  0  0  0  0
  -12.5595    7.7786   -7.9547 H   0  0  0  0  0  0  0  0  0  0  0  0
  -12.9348    6.2793   -8.8356 H   0  0  0  0  0  0  0  0  0  0  0  0
  -14.6067    7.6041   -6.8592 H   0  0  0  0  0  0  0  0  0  0  0  0
  -15.0617    6.1953   -7.8538 H   0  0  0  0  0  0  0  0  0  0  0  0
  -16.1948    7.5020   -9.3943 H   0  0  0  0  0  0  0  0  0  0  0  0
  -16.3351    8.6235   -8.0202 H   0  0  0  0  0  0  0  0  0  0  0  0
  -16.5648   11.4933  -10.3582 H   0  0  0  0  0  0  0  0  0  0  0  0
  -17.8908    9.6344  -10.6106 H   0  0  0  0  0  0  0  0  0  0  0  0
  -19.0546    8.2878  -12.3182 H   0  0  0  0  0  0  0  0  0  0  0  0
  -17.7675    7.2881  -14.1975 H   0  0  0  0  0  0  0  0  0  0  0  0
  -15.3087    7.4758  -14.2565 H   0  0  0  0  0  0  0  0  0  0  0  0
  -14.1646    8.8511  -12.5951 H   0  0  0  0  0  0  0  0  0  0  0  0
  -13.3674   14.1571  -11.1588 H   0  0  0  0  0  0  0  0  0  0  0  0
  1  2  2  0  0  0  0
  1  8  1  0  0  0  0
  1 32  1  0  0  0  0
  2  3  1  0  0  0  0
  2 33  1  0  0  0  0
  3  4  1  0  0  0  0
  3  6  2  0  0  0  0
  4  5  3  0  0  0  0
  6  7  1  0  0  0  0
  6 34  1  0  0  0  0
  7  8  2  0  0  0  0
  7 35  1  0  0  0  0
  8  9  1  0  0  0  0
  9 10  1  0  0  0  0
 10 11  1  0  0  0  0
 10 36  1  0  0  0  0
 10 37  1  0  0  0  0
 11 12  1  0  0  0  0
 11 38  1  0  0  0  0
 11 39  1  0  0  0  0
 12 13  1  0  0  0  0
 12 40  1  0  0  0  0
 12 41  1  0  0  0  0
 13 14  1  0  0  0  0
 13 16  1  0  0  0  0
 13 66  1  1  0  0  0
 14 15  1  0  0  0  0
 14 42  1  0  0  0  0
 14 43  1  0  0  0  0
 15 18  1  0  0  0  0
 15 44  1  0  0  0  0
 15 45  1  0  0  0  0
 16 17  1  0  0  0  0
 16 46  1  0  0  0  0
 16 47  1  0  0  0  0
 17 18  1  0  0  0  0
 17 48  1  0  0  0  0
 17 49  1  0  0  0  0
 18 19  1  0  0  0  0
 18 50  1  6  0  0  0
 19 20  1  1  0  0  0
 19 25  1  0  0  0  0
 19 26  1  0  0  0  0
 20 21  1  0  0  0  0
 20 24  1  0  0  0  0
 20 51  1  0  0  0  0
 21 22  1  0  0  0  0
 21 52  1  0  0  0  0
 21 53  1  0  0  0  0
 22 23  1  0  0  0  0
 22 54  1  0  0  0  0
 22 55  1  0  0  0  0
 23 24  1  0  0  0  0
 23 56  1  0  0  0  0
 23 57  1  0  0  0  0
 24 58  1  0  0  0  0
 24 59  1  0  0  0  0
 25 60  1  0  0  0  0
 26 27  2  0  0  0  0
 26 31  1  0  0  0  0
 27 28  1  0  0  0  0
 27 61  1  0  0  0  0
 28 29  2  0  0  0  0
 28 62  1  0  0  0  0
 29 30  1  0  0  0  0
 29 63  1  0  0  0  0
 30 31  2  0  0  0  0
 30 64  1  0  0  0  0
 31 65  1  0  0  0  0
M  CHG  1  13   1
M  END
$$$$
