2TA
 OpenBabel04111920533D

 74 77  0  0  0  0  0  0  0  0999 V2000
   16.4053   40.7527   26.0687 C   0  0  0  0  0  0  0  0  0  0  0  0
   15.9949   39.5872   26.9376 C   0  0  0  0  0  0  0  0  0  0  0  0
   14.6651   40.0404   27.5055 C   0  0  0  0  0  0  0  0  0  0  0  0
   13.9835   40.7710   26.3603 C   0  0  0  0  0  0  0  0  0  0  0  0
   15.1057   41.2046   25.4464 N   0  3  0  0  0  0  0  0  0  0  0  0
   15.0445   42.6608   25.0453 C   0  0  0  0  0  0  0  0  0  0  0  0
   16.1698   43.0089   24.0697 C   0  0  0  0  0  0  0  0  0  0  0  0
   16.2411   41.9640   23.0981 O   0  0  0  0  0  0  0  0  0  0  0  0
   17.3816   41.9104   22.3496 C   0  0  0  0  0  0  0  0  0  0  0  0
   18.3400   42.9156   22.2526 C   0  0  0  0  0  0  0  0  0  0  0  0
   19.4676   42.7327   21.4449 C   0  0  0  0  0  0  0  0  0  0  0  0
   17.5592   40.7298   21.6330 C   0  0  0  0  0  0  0  0  0  0  0  0
   18.6918   40.5516   20.8331 C   0  0  0  0  0  0  0  0  0  0  0  0
   19.6565   41.5566   20.7103 C   0  0  0  0  0  0  0  0  0  0  0  0
   20.8314   41.4137   19.9702 N   0  0  0  0  0  0  0  0  0  0  0  0
   21.4517   40.2932   19.4301 C   0  0  0  0  0  0  0  0  0  0  0  0
   21.1632   39.0750   19.9008 N   0  0  0  0  0  0  0  0  0  0  0  0
   22.3743   40.5249   18.4924 N   0  0  0  0  0  0  0  0  0  0  0  0
   23.0039   39.4484   17.9924 C   0  0  0  0  0  0  0  0  0  0  0  0
   22.7747   38.1549   18.4165 C   0  0  0  0  0  0  0  0  0  0  0  0
   23.5245   37.0105   17.8141 C   0  0  0  0  0  0  0  0  0  0  0  0
   21.8177   38.0099   19.4142 C   0  0  0  0  0  0  0  0  0  0  0  0
   21.5879   36.7382   19.9775 N   0  0  0  0  0  0  0  0  0  0  0  0
   20.7346   36.3059   21.0185 C   0  0  0  0  0  0  0  0  0  0  0  0
   20.1261   37.1573   21.9486 C   0  0  0  0  0  0  0  0  0  0  0  0
   20.5516   34.9247   21.1728 C   0  0  0  0  0  0  0  0  0  0  0  0
   19.7919   34.4005   22.2214 C   0  0  0  0  0  0  0  0  0  0  0  0
   19.2048   35.2541   23.1465 C   0  0  0  0  0  0  0  0  0  0  0  0
   19.3607   36.6337   23.0006 C   0  0  0  0  0  0  0  0  0  0  0  0
   18.5444   37.6902   24.1689 S   0  0  0  0  0  0  0  0  0  0  0  0
   18.6722   37.1079   25.4895 O   0  0  0  0  0  0  0  0  0  0  0  0
   17.2323   37.9949   23.6349 O   0  0  0  0  0  0  0  0  0  0  0  0
   19.3518   39.1425   24.1708 N   0  0  0  0  0  0  0  0  0  0  0  0
   20.6051   39.4668   24.8748 C   0  0  0  0  0  0  0  0  0  0  0  0
   21.6755   38.3859   24.7378 C   0  0  0  0  0  0  0  0  0  0  0  0
   20.2900   39.7363   26.3518 C   0  0  0  0  0  0  0  0  0  0  0  0
   21.1225   40.7736   24.2481 C   0  0  0  0  0  0  0  0  0  0  0  0
   17.1009   40.4819   25.2729 H   0  0  0  0  0  0  0  0  0  0  0  0
   16.7978   41.5851   26.6619 H   0  0  0  0  0  0  0  0  0  0  0  0
   16.7340   39.3822   27.7172 H   0  0  0  0  0  0  0  0  0  0  0  0
   15.8670   38.6817   26.3340 H   0  0  0  0  0  0  0  0  0  0  0  0
   14.8314   40.7327   28.3397 H   0  0  0  0  0  0  0  0  0  0  0  0
   14.0621   39.2088   27.8801 H   0  0  0  0  0  0  0  0  0  0  0  0
   13.4391   41.6525   26.7094 H   0  0  0  0  0  0  0  0  0  0  0  0
   13.3207   40.1277   25.7753 H   0  0  0  0  0  0  0  0  0  0  0  0
   15.0966   43.2698   25.9533 H   0  0  0  0  0  0  0  0  0  0  0  0
   14.0703   42.7976   24.5639 H   0  0  0  0  0  0  0  0  0  0  0  0
   17.1081   43.0923   24.6319 H   0  0  0  0  0  0  0  0  0  0  0  0
   15.9507   43.9638   23.5789 H   0  0  0  0  0  0  0  0  0  0  0  0
   18.2488   43.8598   22.7786 H   0  0  0  0  0  0  0  0  0  0  0  0
   20.2140   43.5235   21.3979 H   0  0  0  0  0  0  0  0  0  0  0  0
   16.8291   39.9252   21.7025 H   0  0  0  0  0  0  0  0  0  0  0  0
   18.7907   39.6162   20.2858 H   0  0  0  0  0  0  0  0  0  0  0  0
   21.2600   42.2504   19.6024 H   0  0  0  0  0  0  0  0  0  0  0  0
   23.7300   39.6699   17.2144 H   0  0  0  0  0  0  0  0  0  0  0  0
   24.2175   37.3455   17.0350 H   0  0  0  0  0  0  0  0  0  0  0  0
   22.8294   36.3042   17.3485 H   0  0  0  0  0  0  0  0  0  0  0  0
   24.1097   36.4928   18.5801 H   0  0  0  0  0  0  0  0  0  0  0  0
   21.8399   35.9864   19.3499 H   0  0  0  0  0  0  0  0  0  0  0  0
   20.2582   38.2296   21.8734 H   0  0  0  0  0  0  0  0  0  0  0  0
   21.0031   34.2291   20.4674 H   0  0  0  0  0  0  0  0  0  0  0  0
   19.6642   33.3235   22.3094 H   0  0  0  0  0  0  0  0  0  0  0  0
   18.6223   34.8417   23.9676 H   0  0  0  0  0  0  0  0  0  0  0  0
   19.0347   39.7901   23.4485 H   0  0  0  0  0  0  0  0  0  0  0  0
   22.5753   38.6553   25.3039 H   0  0  0  0  0  0  0  0  0  0  0  0
   21.9837   38.2553   23.6962 H   0  0  0  0  0  0  0  0  0  0  0  0
   21.3365   37.4170   25.1148 H   0  0  0  0  0  0  0  0  0  0  0  0
   21.1978   40.0005   26.9062 H   0  0  0  0  0  0  0  0  0  0  0  0
   19.8471   38.8664   26.8454 H   0  0  0  0  0  0  0  0  0  0  0  0
   19.5817   40.5646   26.4599 H   0  0  0  0  0  0  0  0  0  0  0  0
   22.0373   41.1234   24.7363 H   0  0  0  0  0  0  0  0  0  0  0  0
   20.3722   41.5717   24.3317 H   0  0  0  0  0  0  0  0  0  0  0  0
   21.3344   40.6408   23.1813 H   0  0  0  0  0  0  0  0  0  0  0  0
   15.0295   40.6663   24.5644 H   0  0  0  0  0  0  0  0  0  0  0  0
  1  2  1  0  0  0  0
  1  5  1  0  0  0  0
  1 38  1  0  0  0  0
  1 39  1  0  0  0  0
  2  3  1  0  0  0  0
  2 40  1  0  0  0  0
  2 41  1  0  0  0  0
  3  4  1  0  0  0  0
  3 42  1  0  0  0  0
  3 43  1  0  0  0  0
  4  5  1  0  0  0  0
  4 44  1  0  0  0  0
  4 45  1  0  0  0  0
  5  6  1  0  0  0  0
  5 74  1  0  0  0  0
  6  7  1  0  0  0  0
  6 46  1  0  0  0  0
  6 47  1  0  0  0  0
  7  8  1  0  0  0  0
  7 48  1  0  0  0  0
  7 49  1  0  0  0  0
  8  9  1  0  0  0  0
  9 10  2  0  0  0  0
  9 12  1  0  0  0  0
 10 11  1  0  0  0  0
 10 50  1  0  0  0  0
 11 14  2  0  0  0  0
 11 51  1  0  0  0  0
 12 13  2  0  0  0  0
 12 52  1  0  0  0  0
 13 14  1  0  0  0  0
 13 53  1  0  0  0  0
 14 15  1  0  0  0  0
 15 16  1  0  0  0  0
 15 54  1  0  0  0  0
 16 17  2  0  0  0  0
 16 18  1  0  0  0  0
 17 22  1  0  0  0  0
 18 19  2  0  0  0  0
 19 20  1  0  0  0  0
 19 55  1  0  0  0  0
 20 21  1  0  0  0  0
 20 22  2  0  0  0  0
 21 56  1  0  0  0  0
 21 57  1  0  0  0  0
 21 58  1  0  0  0  0
 22 23  1  0  0  0  0
 23 24  1  0  0  0  0
 23 59  1  0  0  0  0
 24 25  2  0  0  0  0
 24 26  1  0  0  0  0
 25 29  1  0  0  0  0
 25 60  1  0  0  0  0
 26 27  2  0  0  0  0
 26 61  1  0  0  0  0
 27 28  1  0  0  0  0
 27 62  1  0  0  0  0
 28 29  2  0  0  0  0
 28 63  1  0  0  0  0
 29 30  1  0  0  0  0
 30 31  2  0  0  0  0
 30 32  2  0  0  0  0
 30 33  1  0  0  0  0
 33 34  1  0  0  0  0
 33 64  1  0  0  0  0
 34 35  1  0  0  0  0
 34 36  1  0  0  0  0
 34 37  1  0  0  0  0
 35 65  1  0  0  0  0
 35 66  1  0  0  0  0
 35 67  1  0  0  0  0
 36 68  1  0  0  0  0
 36 69  1  0  0  0  0
 36 70  1  0  0  0  0
 37 71  1  0  0  0  0
 37 72  1  0  0  0  0
 37 73  1  0  0  0  0
M  CHG  1   5   1
M  END
$$$$
