2VD
 OpenBabel04111921043D

 53 56  0  0  1  0  0  0  0  0999 V2000
   10.9747   -5.2078   -8.9408 C   0  0  0  0  0  0  0  0  0  0  0  0
   11.5258   -6.5912   -8.5871 C   0  0  0  0  0  0  0  0  0  0  0  0
   12.0223   -7.3141   -9.8583 C   0  0  1  0  0  0  0  0  0  0  0  0
   12.7692   -8.5841   -9.4677 C   0  0  0  0  0  0  0  0  0  0  0  0
   13.9646   -8.3688   -9.0673 O   0  0  0  0  0  0  0  0  0  0  0  0
   12.1966   -9.6837   -9.6174 O   0  0  0  0  0  0  0  0  0  0  0  0
   10.8666   -7.5993  -10.8240 C   0  0  0  0  0  0  0  0  0  0  0  0
    9.9499   -6.4147  -10.8835 C   0  0  2  0  0  0  0  0  0  0  0  0
    9.9768   -5.3372  -10.0242 C   0  0  1  0  0  0  0  0  0  0  0  0
    8.9211   -4.4859  -10.3677 C   0  0  2  0  0  0  0  0  0  0  0  0
    8.4695   -3.2567   -9.8415 C   0  0  0  0  0  0  0  0  0  0  0  0
    7.3660   -2.6634  -10.4297 C   0  0  2  0  0  0  0  0  0  0  0  0
    6.7347   -1.0118   -9.7518 Br  0  0  0  0  0  0  0  0  0  0  0  0
    6.7084   -3.2521  -11.5020 C   0  0  0  0  0  0  0  0  0  0  0  0
    7.1438   -4.4754  -12.0348 C   0  0  0  0  0  0  0  0  0  0  0  0
    8.2567   -5.0720  -11.4434 C   0  0  2  0  0  0  0  0  0  0  0  0
    8.8940   -6.2698  -11.7165 N   0  3  1  0  0  0  0  0  0  0  0  0
    8.4987   -7.2178  -12.7475 C   0  0  0  0  0  0  0  0  0  0  0  0
    7.5386   -8.3123  -12.3254 C   0  0  0  0  0  0  0  0  0  0  0  0
    7.3264   -9.2297  -13.1135 O   0  0  0  0  0  0  0  0  0  0  0  0
    6.8703   -8.1569  -11.1340 N   0  0  0  0  0  0  0  0  0  0  0  0
    5.9321   -9.1857  -10.6362 C   0  0  1  0  0  0  0  0  0  0  0  0
    6.2620   -9.7846   -9.2467 C   0  0  0  0  0  0  0  0  0  0  0  0
    7.1995   -9.2159   -8.6190 O   0  0  0  0  0  0  0  0  0  0  0  0
    5.5156  -10.7422   -8.8805 O   0  0  0  0  0  0  0  0  0  0  0  0
    4.5257   -8.5859  -10.5411 C   0  0  0  0  0  0  0  0  0  0  0  0
    4.0844   -8.1816  -11.9275 C   0  0  0  0  0  0  0  0  0  0  0  0
    3.6213   -9.1659  -12.8057 C   0  0  0  0  0  0  0  0  0  0  0  0
    3.3512   -8.8415  -14.1284 C   0  0  0  0  0  0  0  0  0  0  0  0
    3.5542   -7.5363  -14.5773 C   0  0  0  0  0  0  0  0  0  0  0  0
    4.0372   -6.5561  -13.7105 C   0  0  0  0  0  0  0  0  0  0  0  0
    4.2994   -6.8771  -12.3848 C   0  0  0  0  0  0  0  0  0  0  0  0
   11.7833   -4.5518   -9.3032 H   0  0  0  0  0  0  0  0  0  0  0  0
   10.5268   -4.7325   -8.0667 H   0  0  0  0  0  0  0  0  0  0  0  0
   10.7202   -7.1816   -8.1280 H   0  0  0  0  0  0  0  0  0  0  0  0
   12.3201   -6.4821   -7.8450 H   0  0  0  0  0  0  0  0  0  0  0  0
   12.7312   -6.6453  -10.3711 H   0  0  0  0  0  0  0  0  0  0  0  0
   10.2804   -8.4732  -10.5133 H   0  0  0  0  0  0  0  0  0  0  0  0
   11.2697   -7.7916  -11.8248 H   0  0  0  0  0  0  0  0  0  0  0  0
    8.9953   -2.8213   -9.0025 H   0  0  0  0  0  0  0  0  0  0  0  0
    5.8395   -2.7890  -11.9498 H   0  0  0  0  0  0  0  0  0  0  0  0
    6.6281   -4.9526  -12.8605 H   0  0  0  0  0  0  0  0  0  0  0  0
    9.4063   -7.6916  -13.1332 H   0  0  0  0  0  0  0  0  0  0  0  0
    8.0477   -6.6548  -13.5685 H   0  0  0  0  0  0  0  0  0  0  0  0
    7.1415   -7.4586  -10.4555 H   0  0  0  0  0  0  0  0  0  0  0  0
    5.9262  -10.0221  -11.3432 H   0  0  0  0  0  0  0  0  0  0  0  0
    4.5046   -7.7101   -9.8789 H   0  0  0  0  0  0  0  0  0  0  0  0
    3.7913   -9.2952  -10.1390 H   0  0  0  0  0  0  0  0  0  0  0  0
    3.5316  -10.1939  -12.4585 H   0  0  0  0  0  0  0  0  0  0  0  0
    3.0118   -9.6179  -14.8051 H   0  0  0  0  0  0  0  0  0  0  0  0
    3.3543   -7.2896  -15.6132 H   0  0  0  0  0  0  0  0  0  0  0  0
    4.2315   -5.5504  -14.0687 H   0  0  0  0  0  0  0  0  0  0  0  0
    4.7306   -6.1394  -11.7113 H   0  0  0  0  0  0  0  0  0  0  0  0
  1  2  1  0  0  0  0
  1 33  1  0  0  0  0
  1 34  1  0  0  0  0
  2  3  1  0  0  0  0
  2 35  1  0  0  0  0
  2 36  1  0  0  0  0
  3  4  1  0  0  0  0
  3  7  1  0  0  0  0
  3 37  1  6  0  0  0
  4  5  2  0  0  0  0
  4  6  1  0  0  0  0
  7 38  1  0  0  0  0
  7 39  1  0  0  0  0
  8  7  1  1  0  0  0
  8  9  1  0  0  0  0
  8 17  1  0  0  0  0
  9  1  1  1  0  0  0
  9 10  1  0  0  0  0
 10 11  1  1  0  0  0
 10 16  1  0  0  0  0
 11 12  1  0  0  0  0
 11 40  1  0  0  0  0
 12 13  1  1  0  0  0
 12 14  1  0  0  0  0
 14 15  1  0  0  0  0
 14 41  1  0  0  0  0
 15 42  1  0  0  0  0
 16 15  1  1  0  0  0
 16 17  1  0  0  0  0
 17 18  1  6  0  0  0
 18 19  1  0  0  0  0
 18 43  1  0  0  0  0
 18 44  1  0  0  0  0
 19 20  2  0  0  0  0
 19 21  1  0  0  0  0
 21 22  1  0  0  0  0
 21 45  1  0  0  0  0
 22 23  1  0  0  0  0
 22 26  1  0  0  0  0
 22 46  1  6  0  0  0
 23 24  2  0  0  0  0
 23 25  1  0  0  0  0
 26 27  1  0  0  0  0
 26 47  1  0  0  0  0
 26 48  1  0  0  0  0
 27 28  1  0  0  0  0
 27 32  1  0  0  0  0
 28 29  1  0  0  0  0
 28 49  1  0  0  0  0
 29 30  1  0  0  0  0
 29 50  1  0  0  0  0
 30 31  1  0  0  0  0
 30 51  1  0  0  0  0
 31 32  1  0  0  0  0
 31 52  1  0  0  0  0
 32 53  1  0  0  0  0
M  CHG  1  17   1
M  END
$$$$
