2VE
 OpenBabel04111920573D

 40 42  0  0  1  0  0  0  0  0999 V2000
  -34.9663   -9.8988   -8.9745 O   0  0  0  0  0  0  0  0  0  0  0  0
  -33.7607   -9.6772   -9.3352 C   0  0  0  0  0  0  0  0  0  0  0  0
  -32.7722   -9.3627   -8.6251 O   0  0  0  0  0  0  0  0  0  0  0  0
  -33.5158   -9.7593  -10.8523 C   0  0  0  0  0  0  0  0  0  0  0  0
  -33.1186   -8.5030  -11.4910 N   0  0  0  0  0  0  0  0  0  0  0  0
  -32.4105   -8.5318  -12.6626 C   0  0  0  0  0  0  0  0  0  0  0  0
  -32.3895   -9.5312  -13.4001 O   0  0  0  0  0  0  0  0  0  0  0  0
  -31.7491   -7.2646  -13.1185 C   0  0  0  0  0  0  0  0  0  0  0  0
  -31.2544   -6.3988  -12.0626 N   0  3  2  0  0  0  0  0  0  0  0  0
  -30.1873   -6.6084  -11.2254 C   0  0  2  0  0  0  0  0  0  0  0  0
  -29.2924   -7.8111  -11.1478 C   0  0  0  0  0  0  0  0  0  0  0  0
  -28.0968   -7.5036  -10.2113 C   0  0  2  0  0  0  0  0  0  0  0  0
  -27.2856   -8.7143   -9.7992 C   0  0  0  0  0  0  0  0  0  0  0  0
  -27.8094   -9.8519   -9.9506 O   0  0  0  0  0  0  0  0  0  0  0  0
  -26.1117   -8.4420   -9.3730 O   0  0  0  0  0  0  0  0  0  0  0  0
  -28.5589   -6.7929   -8.9161 C   0  0  0  0  0  0  0  0  0  0  0  0
  -29.1347   -5.4228   -9.2572 C   0  0  0  0  0  0  0  0  0  0  0  0
  -30.1238   -5.5444  -10.3518 C   0  0  2  0  0  0  0  0  0  0  0  0
  -31.1476   -4.6425  -10.6727 C   0  0  1  0  0  0  0  0  0  0  0  0
  -31.8475   -5.1879  -11.7425 C   0  0  2  0  0  0  0  0  0  0  0  0
  -32.9549   -4.5474  -12.2920 C   0  0  0  0  0  0  0  0  0  0  0  0
  -33.3287   -3.3295  -11.7418 C   0  0  0  0  0  0  0  0  0  0  0  0
  -32.6313   -2.7709  -10.6701 C   0  0  2  0  0  0  0  0  0  0  0  0
  -33.1972   -1.1070   -9.9790 Br  0  0  0  0  0  0  0  0  0  0  0  0
  -31.5394   -3.4134  -10.1138 C   0  0  0  0  0  0  0  0  0  0  0  0
  -34.4217  -10.0992  -11.3733 H   0  0  0  0  0  0  0  0  0  0  0  0
  -32.7347  -10.5037  -11.0355 H   0  0  0  0  0  0  0  0  0  0  0  0
  -33.0931   -7.6943  -10.8719 H   0  0  0  0  0  0  0  0  0  0  0  0
  -32.5110   -6.7287  -13.6954 H   0  0  0  0  0  0  0  0  0  0  0  0
  -30.9264   -7.4800  -13.8016 H   0  0  0  0  0  0  0  0  0  0  0  0
  -28.9205   -8.0650  -12.1457 H   0  0  0  0  0  0  0  0  0  0  0  0
  -29.8757   -8.6594  -10.7717 H   0  0  0  0  0  0  0  0  0  0  0  0
  -27.4223   -6.8122  -10.7423 H   0  0  0  0  0  0  0  0  0  0  0  0
  -27.7408   -6.6563   -8.2010 H   0  0  0  0  0  0  0  0  0  0  0  0
  -29.3275   -7.3976   -8.4139 H   0  0  0  0  0  0  0  0  0  0  0  0
  -28.3398   -4.7478   -9.5963 H   0  0  0  0  0  0  0  0  0  0  0  0
  -29.6004   -4.9745   -8.3736 H   0  0  0  0  0  0  0  0  0  0  0  0
  -33.5179   -4.9817  -13.1121 H   0  0  0  0  0  0  0  0  0  0  0  0
  -34.1883   -2.8204  -12.1629 H   0  0  0  0  0  0  0  0  0  0  0  0
  -30.9869   -3.0150   -9.2706 H   0  0  0  0  0  0  0  0  0  0  0  0
  1  2  2  0  0  0  0
  2  3  1  0  0  0  0
  2  4  1  0  0  0  0
  4  5  1  0  0  0  0
  4 26  1  0  0  0  0
  4 27  1  0  0  0  0
  5  6  1  0  0  0  0
  5 28  1  0  0  0  0
  6  7  2  0  0  0  0
  6  8  1  0  0  0  0
  8 29  1  0  0  0  0
  8 30  1  0  0  0  0
  9  8  1  1  0  0  0
  9 10  1  0  0  0  0
  9 20  1  0  0  0  0
 10 11  1  1  0  0  0
 10 18  1  0  0  0  0
 11 12  1  0  0  0  0
 11 31  1  0  0  0  0
 11 32  1  0  0  0  0
 12 13  1  0  0  0  0
 12 16  1  0  0  0  0
 12 33  1  6  0  0  0
 13 14  2  0  0  0  0
 13 15  1  0  0  0  0
 16 17  1  0  0  0  0
 16 34  1  0  0  0  0
 16 35  1  0  0  0  0
 17 36  1  0  0  0  0
 17 37  1  0  0  0  0
 18 17  1  1  0  0  0
 18 19  1  0  0  0  0
 19 20  1  0  0  0  0
 19 25  1  1  0  0  0
 20 21  1  1  0  0  0
 21 22  1  0  0  0  0
 21 38  1  0  0  0  0
 22 23  1  0  0  0  0
 22 39  1  0  0  0  0
 23 24  1  6  0  0  0
 23 25  1  0  0  0  0
 25 40  1  0  0  0  0
M  CHG  1   9   1
M  END
$$$$
