2VG
 OpenBabel04111920563D

 28 30  0  0  1  0  0  0  0  0999 V2000
    7.0241   -1.7285   -9.6827 Cl  0  0  0  0  0  0  0  0  0  0  0  0
    7.6093   -3.2050  -10.3495 C   0  0  2  0  0  0  0  0  0  0  0  0
    8.6918   -3.8445   -9.7495 C   0  0  0  0  0  0  0  0  0  0  0  0
    9.1615   -5.0447  -10.3093 C   0  0  2  0  0  0  0  0  0  0  0  0
    6.9941   -3.7419  -11.4810 C   0  0  0  0  0  0  0  0  0  0  0  0
    7.4424   -4.9401  -12.0486 C   0  0  0  0  0  0  0  0  0  0  0  0
    8.5324   -5.5691  -11.4413 C   0  0  2  0  0  0  0  0  0  0  0  0
    9.1837   -6.7442  -11.7678 N   0  3  0  0  0  0  0  0  0  0  0  0
   10.2038   -6.9574  -10.8847 C   0  0  1  0  0  0  0  0  0  0  0  0
   10.2074   -5.9347   -9.9665 C   0  0  2  0  0  0  0  0  0  0  0  0
   11.1709   -5.8774   -8.8365 C   0  0  0  0  0  0  0  0  0  0  0  0
   11.7084   -7.2838   -8.5358 C   0  0  0  0  0  0  0  0  0  0  0  0
   11.1013   -8.1539  -10.8819 C   0  0  0  0  0  0  0  0  0  0  0  0
   12.2006   -7.9996   -9.8165 C   0  0  2  0  0  0  0  0  0  0  0  0
   12.7721   -9.3558   -9.3832 C   0  0  0  0  0  0  0  0  0  0  0  0
   12.0228  -10.3598   -9.5074 O   0  0  0  0  0  0  0  0  0  0  0  0
   13.9577   -9.2993   -8.9437 O   0  0  0  0  0  0  0  0  0  0  0  0
    9.1738   -3.4360   -8.8672 H   0  0  0  0  0  0  0  0  0  0  0  0
    6.1523   -3.2268  -11.9334 H   0  0  0  0  0  0  0  0  0  0  0  0
    6.9617   -5.3592  -12.9254 H   0  0  0  0  0  0  0  0  0  0  0  0
    8.9364   -7.3605  -12.5281 H   0  0  0  0  0  0  0  0  0  0  0  0
   10.6876   -5.4669   -7.9428 H   0  0  0  0  0  0  0  0  0  0  0  0
   11.9928   -5.2027   -9.1051 H   0  0  0  0  0  0  0  0  0  0  0  0
   10.9077   -7.8777   -8.0744 H   0  0  0  0  0  0  0  0  0  0  0  0
   12.5122   -7.2051   -7.7946 H   0  0  0  0  0  0  0  0  0  0  0  0
   11.5698   -8.2639  -11.8676 H   0  0  0  0  0  0  0  0  0  0  0  0
   10.4840   -9.0439  -10.7197 H   0  0  0  0  0  0  0  0  0  0  0  0
   13.0160   -7.3992  -10.2465 H   0  0  0  0  0  0  0  0  0  0  0  0
  2  1  1  6  0  0  0
  2  3  1  0  0  0  0
  2  5  1  0  0  0  0
  3 18  1  0  0  0  0
  4  3  1  1  0  0  0
  4  7  1  0  0  0  0
  4 10  1  0  0  0  0
  5  6  1  0  0  0  0
  5 19  1  0  0  0  0
  6 20  1  0  0  0  0
  7  6  1  1  0  0  0
  7  8  1  0  0  0  0
  8 21  1  0  0  0  0
  9  8  1  1  0  0  0
  9 10  1  0  0  0  0
  9 13  1  0  0  0  0
 10 11  1  1  0  0  0
 11 12  1  0  0  0  0
 11 22  1  0  0  0  0
 11 23  1  0  0  0  0
 12 14  1  0  0  0  0
 12 24  1  0  0  0  0
 12 25  1  0  0  0  0
 13 14  1  0  0  0  0
 13 26  1  0  0  0  0
 13 27  1  0  0  0  0
 14 15  1  0  0  0  0
 14 28  1  6  0  0  0
 15 16  2  0  0  0  0
 15 17  1  0  0  0  0
M  CHG  1   8   1
M  END
$$$$
