2VK
 OpenBabel04111920533D

 66 69  0  0  1  0  0  0  0  0999 V2000
   10.7982   19.2679   13.2548 C   0  0  0  0  0  0  0  0  0  0  0  0
   10.2155   20.4217   13.7817 C   0  0  0  0  0  0  0  0  0  0  0  0
    8.8355   20.4252   14.0044 C   0  0  0  0  0  0  0  0  0  0  0  0
    8.2612   21.5525   14.5182 C   0  0  0  0  0  0  0  0  0  0  0  0
    7.8156   22.5297   14.9575 N   0  0  0  0  0  0  0  0  0  0  0  0
    8.0344   19.3140   13.7170 C   0  0  0  0  0  0  0  0  0  0  0  0
    8.6156   18.1849   13.2063 C   0  0  0  0  0  0  0  0  0  0  0  0
    9.9996   18.1671   12.9748 C   0  0  0  0  0  0  0  0  0  0  0  0
   10.6801   17.0974   12.4709 O   0  0  0  0  0  0  0  0  0  0  0  0
    9.9131   15.9143   12.2176 C   0  0  0  0  0  0  0  0  0  0  0  0
   10.8282   15.0126   11.4052 C   0  0  0  0  0  0  0  0  0  0  0  0
   11.7661   14.2876   12.3469 C   0  0  0  0  0  0  0  0  0  0  0  0
   12.8240   13.4905   11.5834 N   0  3  1  0  0  0  0  0  0  0  0  0
   13.8863   13.0328   12.5581 C   0  0  0  0  0  0  0  0  0  0  0  0
   14.9038   12.1806   11.8687 C   0  0  0  0  0  0  0  0  0  0  0  0
   12.1899   12.3090   10.8876 C   0  0  0  0  0  0  0  0  0  0  0  0
   13.2342   11.4587   10.2146 C   0  0  0  0  0  0  0  0  0  0  0  0
   14.2564   10.9542   11.2444 C   0  0  1  0  0  0  0  0  0  0  0  0
   15.3163   10.0083   10.6413 C   0  0  2  0  0  0  0  0  0  0  0  0
   16.2660    9.4677   11.7106 C   0  0  0  0  0  0  0  0  0  0  0  0
   17.4112    8.6162   11.1666 C   0  0  0  0  0  0  0  0  0  0  0  0
   17.8603    7.7530   12.3328 C   0  0  0  0  0  0  0  0  0  0  0  0
   16.8637    8.0441   13.4533 C   0  0  0  0  0  0  0  0  0  0  0  0
   15.6355    8.5428   12.7379 C   0  0  0  0  0  0  0  0  0  0  0  0
   16.0890   10.7535    9.6965 O   0  0  0  0  0  0  0  0  0  0  0  0
   14.6623    8.8632    9.9036 C   0  0  0  0  0  0  0  0  0  0  0  0
   13.5256    8.2589   10.4444 C   0  0  0  0  0  0  0  0  0  0  0  0
   12.9445    7.1937    9.8035 C   0  0  0  0  0  0  0  0  0  0  0  0
   13.4894    6.7133    8.6221 C   0  0  0  0  0  0  0  0  0  0  0  0
   14.6307    7.2947    8.0793 C   0  0  0  0  0  0  0  0  0  0  0  0
   15.2159    8.3679    8.7157 C   0  0  0  0  0  0  0  0  0  0  0  0
   11.8564   19.2738   13.0858 H   0  0  0  0  0  0  0  0  0  0  0  0
   10.8030   21.3062   14.0179 H   0  0  0  0  0  0  0  0  0  0  0  0
    6.9642   19.3559   13.9031 H   0  0  0  0  0  0  0  0  0  0  0  0
    8.0116   17.3344   12.9825 H   0  0  0  0  0  0  0  0  0  0  0  0
    9.0085   16.1352   11.6384 H   0  0  0  0  0  0  0  0  0  0  0  0
    9.6317   15.4409   13.1701 H   0  0  0  0  0  0  0  0  0  0  0  0
   11.4079   15.6174   10.6988 H   0  0  0  0  0  0  0  0  0  0  0  0
   10.2244   14.2949   10.8503 H   0  0  0  0  0  0  0  0  0  0  0  0
   11.2280   13.5571   12.9545 H   0  0  0  0  0  0  0  0  0  0  0  0
   12.3062   14.9816   12.9940 H   0  0  0  0  0  0  0  0  0  0  0  0
   13.3675   12.4669   13.3285 H   0  0  0  0  0  0  0  0  0  0  0  0
   14.3468   13.9250   12.9749 H   0  0  0  0  0  0  0  0  0  0  0  0
   15.6320   11.8712   12.6147 H   0  0  0  0  0  0  0  0  0  0  0  0
   15.4279   12.7567   11.0987 H   0  0  0  0  0  0  0  0  0  0  0  0
   11.4867   12.7061   10.1621 H   0  0  0  0  0  0  0  0  0  0  0  0
   11.6693   11.7520   11.6661 H   0  0  0  0  0  0  0  0  0  0  0  0
   13.7421   12.0228    9.4276 H   0  0  0  0  0  0  0  0  0  0  0  0
   12.7130   10.6209    9.7473 H   0  0  0  0  0  0  0  0  0  0  0  0
   13.7109   10.4175   12.0257 H   0  0  0  0  0  0  0  0  0  0  0  0
   16.7031   10.3217   12.2381 H   0  0  0  0  0  0  0  0  0  0  0  0
   18.2193    9.2339   10.7848 H   0  0  0  0  0  0  0  0  0  0  0  0
   17.0618    7.9702   10.3586 H   0  0  0  0  0  0  0  0  0  0  0  0
   18.8753    8.0052   12.6494 H   0  0  0  0  0  0  0  0  0  0  0  0
   17.8270    6.6851   12.0823 H   0  0  0  0  0  0  0  0  0  0  0  0
   17.2657    8.8374   14.0938 H   0  0  0  0  0  0  0  0  0  0  0  0
   16.6596    7.1608   14.0455 H   0  0  0  0  0  0  0  0  0  0  0  0
   15.1231    7.7067   12.2468 H   0  0  0  0  0  0  0  0  0  0  0  0
   14.9380    9.0498   13.3977 H   0  0  0  0  0  0  0  0  0  0  0  0
   16.5320   11.4492   10.1985 H   0  0  0  0  0  0  0  0  0  0  0  0
   13.1102    8.6202   11.3787 H   0  0  0  0  0  0  0  0  0  0  0  0
   12.0670    6.7425   10.2305 H   0  0  0  0  0  0  0  0  0  0  0  0
   13.0169    5.8730    8.1184 H   0  0  0  0  0  0  0  0  0  0  0  0
   15.0599    6.9128    7.1636 H   0  0  0  0  0  0  0  0  0  0  0  0
   16.1188    8.8191    8.3151 H   0  0  0  0  0  0  0  0  0  0  0  0
   13.2544   14.1157   10.8858 H   0  0  0  0  0  0  0  0  0  0  0  0
  1  2  2  0  0  0  0
  1  8  1  0  0  0  0
  1 32  1  0  0  0  0
  2  3  1  0  0  0  0
  2 33  1  0  0  0  0
  3  4  1  0  0  0  0
  3  6  2  0  0  0  0
  4  5  3  0  0  0  0
  6  7  1  0  0  0  0
  6 34  1  0  0  0  0
  7  8  2  0  0  0  0
  7 35  1  0  0  0  0
  8  9  1  0  0  0  0
  9 10  1  0  0  0  0
 10 11  1  0  0  0  0
 10 36  1  0  0  0  0
 10 37  1  0  0  0  0
 11 12  1  0  0  0  0
 11 38  1  0  0  0  0
 11 39  1  0  0  0  0
 12 13  1  0  0  0  0
 12 40  1  0  0  0  0
 12 41  1  0  0  0  0
 13 14  1  0  0  0  0
 13 16  1  0  0  0  0
 13 66  1  6  0  0  0
 14 15  1  0  0  0  0
 14 42  1  0  0  0  0
 14 43  1  0  0  0  0
 15 18  1  0  0  0  0
 15 44  1  0  0  0  0
 15 45  1  0  0  0  0
 16 17  1  0  0  0  0
 16 46  1  0  0  0  0
 16 47  1  0  0  0  0
 17 18  1  0  0  0  0
 17 48  1  0  0  0  0
 17 49  1  0  0  0  0
 18 19  1  0  0  0  0
 18 50  1  1  0  0  0
 19 20  1  1  0  0  0
 19 25  1  0  0  0  0
 19 26  1  0  0  0  0
 20 21  1  0  0  0  0
 20 24  1  0  0  0  0
 20 51  1  0  0  0  0
 21 22  1  0  0  0  0
 21 52  1  0  0  0  0
 21 53  1  0  0  0  0
 22 23  1  0  0  0  0
 22 54  1  0  0  0  0
 22 55  1  0  0  0  0
 23 24  1  0  0  0  0
 23 56  1  0  0  0  0
 23 57  1  0  0  0  0
 24 58  1  0  0  0  0
 24 59  1  0  0  0  0
 25 60  1  0  0  0  0
 26 27  2  0  0  0  0
 26 31  1  0  0  0  0
 27 28  1  0  0  0  0
 27 61  1  0  0  0  0
 28 29  2  0  0  0  0
 28 62  1  0  0  0  0
 29 30  1  0  0  0  0
 29 63  1  0  0  0  0
 30 31  2  0  0  0  0
 30 64  1  0  0  0  0
 31 65  1  0  0  0  0
M  CHG  1  13   1
M  END
$$$$
