2VR
 OpenBabel04111921043D

 46 47  0  0  0  0  0  0  0  0999 V2000
   65.6034   46.0564   29.0071 C   0  0  0  0  0  0  0  0  0  0  0  0
   66.9662   45.3892   29.2054 C   0  0  0  0  0  0  0  0  0  0  0  0
   67.8929   46.1147   30.1729 C   0  0  0  0  0  0  0  0  0  0  0  0
   67.1633   46.5964   31.4017 C   0  0  0  0  0  0  0  0  0  0  0  0
   67.7948   46.5351   32.6510 C   0  0  0  0  0  0  0  0  0  0  0  0
   67.1359   46.9816   33.7905 C   0  0  0  0  0  0  0  0  0  0  0  0
   65.8455   47.4984   33.6908 C   0  0  0  0  0  0  0  0  0  0  0  0
   65.2025   47.6033   32.4449 C   0  0  0  0  0  0  0  0  0  0  0  0
   63.8024   48.1698   32.4201 C   0  0  0  0  0  0  0  0  0  0  0  0
   65.8753   47.1677   31.2794 C   0  0  0  0  0  0  0  0  0  0  0  0
   65.3208   47.2439   29.8937 C   0  0  0  0  0  0  0  0  0  0  0  0
   64.7079   48.3519   29.4419 C   0  0  0  0  0  0  0  0  0  0  0  0
   64.1875   48.4911   28.0928 C   0  0  0  0  0  0  0  0  0  0  0  0
   65.2355   48.8420   27.0611 C   0  0  0  0  0  0  0  0  0  0  0  0
   62.9201   48.2094   27.7509 C   0  0  0  0  0  0  0  0  0  0  0  0
   61.8388   47.8279   28.6528 C   0  0  0  0  0  0  0  0  0  0  0  0
   60.7520   47.1512   28.2482 C   0  0  0  0  0  0  0  0  0  0  0  0
   59.6217   46.7967   29.1071 C   0  0  0  0  0  0  0  0  0  0  0  0
   59.9269   46.1704   30.4430 C   0  0  0  0  0  0  0  0  0  0  0  0
   58.3748   47.0493   28.6635 C   0  0  0  0  0  0  0  0  0  0  0  0
   57.0417   46.8129   29.3861 C   0  0  0  0  0  0  0  0  0  0  0  0
   56.1447   47.6507   29.0594 O   0  0  0  0  0  0  0  0  0  0  0  0
   56.9657   45.8264   30.1569 O   0  0  0  0  0  0  0  0  0  0  0  0
   64.8092   45.3137   29.1372 H   0  0  0  0  0  0  0  0  0  0  0  0
   65.5515   46.3266   27.9540 H   0  0  0  0  0  0  0  0  0  0  0  0
   67.4680   45.2935   28.2340 H   0  0  0  0  0  0  0  0  0  0  0  0
   66.7945   44.3671   29.5574 H   0  0  0  0  0  0  0  0  0  0  0  0
   68.3659   46.9732   29.6816 H   0  0  0  0  0  0  0  0  0  0  0  0
   68.6949   45.4211   30.4519 H   0  0  0  0  0  0  0  0  0  0  0  0
   68.8004   46.1324   32.7401 H   0  0  0  0  0  0  0  0  0  0  0  0
   67.6215   46.9193   34.7606 H   0  0  0  0  0  0  0  0  0  0  0  0
   65.3365   47.8160   34.5975 H   0  0  0  0  0  0  0  0  0  0  0  0
   63.4339   48.3818   33.4248 H   0  0  0  0  0  0  0  0  0  0  0  0
   63.1099   47.4573   31.9531 H   0  0  0  0  0  0  0  0  0  0  0  0
   63.7750   49.1219   31.8974 H   0  0  0  0  0  0  0  0  0  0  0  0
   64.5775   49.2377   30.0537 H   0  0  0  0  0  0  0  0  0  0  0  0
   64.8154   48.8734   26.0548 H   0  0  0  0  0  0  0  0  0  0  0  0
   66.0493   48.1153   27.0405 H   0  0  0  0  0  0  0  0  0  0  0  0
   65.6858   49.8187   27.2816 H   0  0  0  0  0  0  0  0  0  0  0  0
   62.6389   48.2594   26.7004 H   0  0  0  0  0  0  0  0  0  0  0  0
   61.9145   48.1553   29.6827 H   0  0  0  0  0  0  0  0  0  0  0  0
   60.6568   46.8489   27.2053 H   0  0  0  0  0  0  0  0  0  0  0  0
   59.0454   45.9670   31.0542 H   0  0  0  0  0  0  0  0  0  0  0  0
   60.5597   46.8202   31.0480 H   0  0  0  0  0  0  0  0  0  0  0  0
   60.4387   45.2102   30.2990 H   0  0  0  0  0  0  0  0  0  0  0  0
   58.2357   47.5404   27.7031 H   0  0  0  0  0  0  0  0  0  0  0  0
  1  2  1  0  0  0  0
  1 11  1  0  0  0  0
  1 24  1  0  0  0  0
  1 25  1  0  0  0  0
  2  3  1  0  0  0  0
  2 26  1  0  0  0  0
  2 27  1  0  0  0  0
  3  4  1  0  0  0  0
  3 28  1  0  0  0  0
  3 29  1  0  0  0  0
  4  5  2  0  0  0  0
  4 10  1  0  0  0  0
  5  6  1  0  0  0  0
  5 30  1  0  0  0  0
  6  7  2  0  0  0  0
  6 31  1  0  0  0  0
  7  8  1  0  0  0  0
  7 32  1  0  0  0  0
  8  9  1  0  0  0  0
  8 10  2  0  0  0  0
  9 33  1  0  0  0  0
  9 34  1  0  0  0  0
  9 35  1  0  0  0  0
 10 11  1  0  0  0  0
 11 12  2  0  0  0  0
 12 13  1  0  0  0  0
 12 36  1  0  0  0  0
 13 14  1  0  0  0  0
 13 15  2  0  0  0  0
 14 37  1  0  0  0  0
 14 38  1  0  0  0  0
 14 39  1  0  0  0  0
 15 16  1  0  0  0  0
 15 40  1  0  0  0  0
 16 17  2  0  0  0  0
 16 41  1  0  0  0  0
 17 18  1  0  0  0  0
 17 42  1  0  0  0  0
 18 19  1  0  0  0  0
 18 20  2  0  0  0  0
 19 43  1  0  0  0  0
 19 44  1  0  0  0  0
 19 45  1  0  0  0  0
 20 21  1  0  0  0  0
 20 46  1  0  0  0  0
 21 22  2  0  0  0  0
 21 23  1  0  0  0  0
M  END
$$$$
