2VY
 OpenBabel04111921053D

 32 33  0  0  0  0  0  0  0  0999 V2000
   14.6912   11.6246   41.8540 C   0  0  0  0  0  0  0  0  0  0  0  0
   15.1014    7.6590   44.4773 N   0  0  0  0  0  0  0  0  0  0  0  0
   18.3186    7.1925   48.3747 C   0  0  0  0  0  0  0  0  0  0  0  0
   20.8267    5.5279   48.2490 O   0  0  0  0  0  0  0  0  0  0  0  0
   20.5643    5.3177   46.8644 C   0  0  0  0  0  0  0  0  0  0  0  0
   18.4403    7.8809   44.6501 C   0  0  0  0  0  0  0  0  0  0  0  0
   19.6591    6.6878   44.6114 S   0  0  0  0  0  0  0  0  0  0  0  0
   19.6310    6.3833   46.3053 C   0  0  0  0  0  0  0  0  0  0  0  0
   18.6696    7.1828   46.9147 C   0  0  0  0  0  0  0  0  0  0  0  0
   17.9799    8.0639   45.9573 C   0  0  0  0  0  0  0  0  0  0  0  0
   16.8890    9.0119   46.4207 C   0  0  0  0  0  0  0  0  0  0  0  0
   15.4467    8.9907   44.3144 C   0  0  0  0  0  0  0  0  0  0  0  0
   14.9487    9.6246   43.2377 N   0  0  0  0  0  0  0  0  0  0  0  0
   15.2599   10.9247   43.0587 C   0  0  0  0  0  0  0  0  0  0  0  0
   16.0429   11.6624   43.8824 N   0  0  0  0  0  0  0  0  0  0  0  0
   16.5521   11.0300   44.9733 C   0  0  0  0  0  0  0  0  0  0  0  0
   16.2793    9.6711   45.2200 C   0  0  0  0  0  0  0  0  0  0  0  0
   14.0676   10.9383   41.2662 H   0  0  0  0  0  0  0  0  0  0  0  0
   15.4984   11.9960   41.2092 H   0  0  0  0  0  0  0  0  0  0  0  0
   14.0713   12.4780   42.1596 H   0  0  0  0  0  0  0  0  0  0  0  0
   15.4558    7.1054   45.2430 H   0  0  0  0  0  0  0  0  0  0  0  0
   14.4953    7.2082   43.8036 H   0  0  0  0  0  0  0  0  0  0  0  0
   18.9207    6.4789   48.9306 H   0  0  0  0  0  0  0  0  0  0  0  0
   17.2656    6.9263   48.5139 H   0  0  0  0  0  0  0  0  0  0  0  0
   18.4862    8.1892   48.7969 H   0  0  0  0  0  0  0  0  0  0  0  0
   21.2401    6.4035   48.3374 H   0  0  0  0  0  0  0  0  0  0  0  0
   20.1123    4.3234   46.7701 H   0  0  0  0  0  0  0  0  0  0  0  0
   21.5284    5.3259   46.3431 H   0  0  0  0  0  0  0  0  0  0  0  0
   18.0754    8.3898   43.7552 H   0  0  0  0  0  0  0  0  0  0  0  0
   17.3204    9.7584   47.1013 H   0  0  0  0  0  0  0  0  0  0  0  0
   16.1217    8.4595   46.9713 H   0  0  0  0  0  0  0  0  0  0  0  0
   17.1522   11.6258   45.6341 H   0  0  0  0  0  0  0  0  0  0  0  0
  1 14  1  0  0  0  0
  1 18  1  0  0  0  0
  1 19  1  0  0  0  0
  1 20  1  0  0  0  0
  2 12  1  0  0  0  0
  2 21  1  0  0  0  0
  2 22  1  0  0  0  0
  3  9  1  0  0  0  0
  3 23  1  0  0  0  0
  3 24  1  0  0  0  0
  3 25  1  0  0  0  0
  4  5  1  0  0  0  0
  4 26  1  0  0  0  0
  5  8  1  0  0  0  0
  5 27  1  0  0  0  0
  5 28  1  0  0  0  0
  6  7  1  0  0  0  0
  6 10  2  0  0  0  0
  6 29  1  0  0  0  0
  7  8  1  0  0  0  0
  8  9  2  0  0  0  0
  9 10  1  0  0  0  0
 10 11  1  0  0  0  0
 11 17  1  0  0  0  0
 11 30  1  0  0  0  0
 11 31  1  0  0  0  0
 12 13  2  0  0  0  0
 12 17  1  0  0  0  0
 13 14  1  0  0  0  0
 14 15  2  0  0  0  0
 15 16  1  0  0  0  0
 16 17  2  0  0  0  0
 16 32  1  0  0  0  0
M  END
$$$$
