2VZ
 OpenBabel04111921063D

 46 47  0  0  0  0  0  0  0  0999 V2000
   66.3834   46.7792   29.6261 C   0  0  0  0  0  0  0  0  0  0  0  0
   67.1777   45.7807   30.4544 C   0  0  0  0  0  0  0  0  0  0  0  0
   67.7354   46.4416   31.7043 C   0  0  0  0  0  0  0  0  0  0  0  0
   66.6327   47.0724   32.5128 C   0  0  0  0  0  0  0  0  0  0  0  0
   66.7468   47.0911   33.9178 C   0  0  0  0  0  0  0  0  0  0  0  0
   65.7502   47.6517   34.7208 C   0  0  0  0  0  0  0  0  0  0  0  0
   65.8763   47.6289   36.2139 C   0  0  0  0  0  0  0  0  0  0  0  0
   64.6321   48.2078   34.1078 C   0  0  0  0  0  0  0  0  0  0  0  0
   64.5183   48.2061   32.7130 C   0  0  0  0  0  0  0  0  0  0  0  0
   65.5146   47.6598   31.8832 C   0  0  0  0  0  0  0  0  0  0  0  0
   65.3920   47.6328   30.3909 C   0  0  0  0  0  0  0  0  0  0  0  0
   64.4259   48.3365   29.7518 C   0  0  0  0  0  0  0  0  0  0  0  0
   64.0946   48.3128   28.3339 C   0  0  0  0  0  0  0  0  0  0  0  0
   65.1412   48.8060   27.3733 C   0  0  0  0  0  0  0  0  0  0  0  0
   62.8736   47.9250   27.9013 C   0  0  0  0  0  0  0  0  0  0  0  0
   61.7762   47.4965   28.7504 C   0  0  0  0  0  0  0  0  0  0  0  0
   60.5954   47.0415   28.3019 C   0  0  0  0  0  0  0  0  0  0  0  0
   59.4821   46.6497   29.1687 C   0  0  0  0  0  0  0  0  0  0  0  0
   59.8232   45.9285   30.4489 C   0  0  0  0  0  0  0  0  0  0  0  0
   58.2293   46.9463   28.7745 C   0  0  0  0  0  0  0  0  0  0  0  0
   56.8998   46.6815   29.4897 C   0  0  0  0  0  0  0  0  0  0  0  0
   56.8163   45.6267   30.1731 O   0  0  0  0  0  0  0  0  0  0  0  0
   56.0182   47.5585   29.2534 O   0  0  0  0  0  0  0  0  0  0  0  0
   65.8771   46.2207   28.8283 H   0  0  0  0  0  0  0  0  0  0  0  0
   67.1068   47.4530   29.1482 H   0  0  0  0  0  0  0  0  0  0  0  0
   68.0027   45.3821   29.8520 H   0  0  0  0  0  0  0  0  0  0  0  0
   66.5413   44.9286   30.7256 H   0  0  0  0  0  0  0  0  0  0  0  0
   68.4658   47.2160   31.4384 H   0  0  0  0  0  0  0  0  0  0  0  0
   68.2592   45.6825   32.2956 H   0  0  0  0  0  0  0  0  0  0  0  0
   67.6216   46.6401   34.3875 H   0  0  0  0  0  0  0  0  0  0  0  0
   65.0141   48.1020   36.6949 H   0  0  0  0  0  0  0  0  0  0  0  0
   66.7741   48.1728   36.5248 H   0  0  0  0  0  0  0  0  0  0  0  0
   65.9349   46.5965   36.5728 H   0  0  0  0  0  0  0  0  0  0  0  0
   63.8307   48.6374   34.7004 H   0  0  0  0  0  0  0  0  0  0  0  0
   63.6043   48.6304   32.3068 H   0  0  0  0  0  0  0  0  0  0  0  0
   63.7406   48.9689   30.3088 H   0  0  0  0  0  0  0  0  0  0  0  0
   64.7697   48.8365   26.3430 H   0  0  0  0  0  0  0  0  0  0  0  0
   66.0257   48.1665   27.3656 H   0  0  0  0  0  0  0  0  0  0  0  0
   65.4533   49.8228   27.6384 H   0  0  0  0  0  0  0  0  0  0  0  0
   62.6628   47.9330   26.8333 H   0  0  0  0  0  0  0  0  0  0  0  0
   61.9166   47.5990   29.8216 H   0  0  0  0  0  0  0  0  0  0  0  0
   60.4027   46.9782   27.2329 H   0  0  0  0  0  0  0  0  0  0  0  0
   58.9608   45.7063   31.0779 H   0  0  0  0  0  0  0  0  0  0  0  0
   60.4965   46.5209   31.0757 H   0  0  0  0  0  0  0  0  0  0  0  0
   60.3134   44.9749   30.2208 H   0  0  0  0  0  0  0  0  0  0  0  0
   58.0741   47.5021   27.8502 H   0  0  0  0  0  0  0  0  0  0  0  0
  1  2  1  0  0  0  0
  1 11  1  0  0  0  0
  1 24  1  0  0  0  0
  1 25  1  0  0  0  0
  2  3  1  0  0  0  0
  2 26  1  0  0  0  0
  2 27  1  0  0  0  0
  3  4  1  0  0  0  0
  3 28  1  0  0  0  0
  3 29  1  0  0  0  0
  4  5  2  0  0  0  0
  4 10  1  0  0  0  0
  5  6  1  0  0  0  0
  5 30  1  0  0  0  0
  6  7  1  0  0  0  0
  6  8  2  0  0  0  0
  7 31  1  0  0  0  0
  7 32  1  0  0  0  0
  7 33  1  0  0  0  0
  8  9  1  0  0  0  0
  8 34  1  0  0  0  0
  9 10  2  0  0  0  0
  9 35  1  0  0  0  0
 10 11  1  0  0  0  0
 11 12  2  0  0  0  0
 12 13  1  0  0  0  0
 12 36  1  0  0  0  0
 13 14  1  0  0  0  0
 13 15  2  0  0  0  0
 14 37  1  0  0  0  0
 14 38  1  0  0  0  0
 14 39  1  0  0  0  0
 15 16  1  0  0  0  0
 15 40  1  0  0  0  0
 16 17  2  0  0  0  0
 16 41  1  0  0  0  0
 17 18  1  0  0  0  0
 17 42  1  0  0  0  0
 18 19  1  0  0  0  0
 18 20  2  0  0  0  0
 19 43  1  0  0  0  0
 19 44  1  0  0  0  0
 19 45  1  0  0  0  0
 20 21  1  0  0  0  0
 20 46  1  0  0  0  0
 21 22  2  0  0  0  0
 21 23  1  0  0  0  0
M  END
$$$$
