2XL
 OpenBabel04111921103D

 48 50  0  0  0  0  0  0  0  0999 V2000
  -38.8863   10.7884   -4.4141 C   0  0  0  0  0  0  0  0  0  0  0  0
  -37.9990   10.6640   -3.3048 O   0  0  0  0  0  0  0  0  0  0  0  0
  -36.7329   11.1281   -3.5418 C   0  0  0  0  0  0  0  0  0  0  0  0
  -35.7000   10.4911   -2.8443 C   0  0  0  0  0  0  0  0  0  0  0  0
  -34.3907   10.8722   -3.0116 C   0  0  0  0  0  0  0  0  0  0  0  0
  -35.9380    9.4562   -1.9914 O   0  0  0  0  0  0  0  0  0  0  0  0
  -36.4349   12.1926   -4.4008 C   0  0  0  0  0  0  0  0  0  0  0  0
  -35.1187   12.5980   -4.5583 C   0  0  0  0  0  0  0  0  0  0  0  0
  -34.1030   11.9251   -3.8655 C   0  0  0  0  0  0  0  0  0  0  0  0
  -32.7148   12.2980   -3.9634 C   0  0  0  0  0  0  0  0  0  0  0  0
  -31.8113   11.9848   -3.0587 N   0  0  0  0  0  0  0  0  0  0  0  0
  -32.1620   13.1745   -5.3103 S   0  0  0  0  0  0  0  0  0  0  0  0
  -30.6100   13.1690   -4.6387 C   0  0  0  0  0  0  0  0  0  0  0  0
  -29.5193   13.8671   -5.3416 C   0  0  0  0  0  0  0  0  0  0  0  0
  -29.6602   15.3644   -5.1204 C   0  0  0  0  0  0  0  0  0  0  0  0
  -28.8601   15.7778   -3.8982 C   0  0  0  0  0  0  0  0  0  0  0  0
  -30.5864   12.4875   -3.4367 C   0  0  0  0  0  0  0  0  0  0  0  0
  -29.3697   12.2638   -2.6188 C   0  0  0  0  0  0  0  0  0  0  0  0
  -28.6635   10.6465   -3.0898 S   0  0  0  0  0  0  0  0  0  0  0  0
  -26.9779   11.0383   -3.5064 C   0  0  0  0  0  0  0  0  0  0  0  0
  -26.2201    9.9821   -3.8833 N   0  0  0  0  0  0  0  0  0  0  0  0
  -26.5494   12.3127   -3.3963 N   0  0  0  0  0  0  0  0  0  0  0  0
  -25.2525   12.5278   -3.7091 C   0  0  0  0  0  0  0  0  0  0  0  0
  -24.7778   13.8083   -3.6102 N   0  0  0  0  0  0  0  0  0  0  0  0
  -24.4090   11.4961   -4.0850 C   0  0  0  0  0  0  0  0  0  0  0  0
  -24.9270   10.2341   -4.1685 C   0  0  0  0  0  0  0  0  0  0  0  0
  -24.1225    9.1684   -4.5319 N   0  0  0  0  0  0  0  0  0  0  0  0
  -39.8655   10.3938   -4.1162 H   0  0  0  0  0  0  0  0  0  0  0  0
  -38.5232   10.2083   -5.2626 H   0  0  0  0  0  0  0  0  0  0  0  0
  -39.0365   11.8348   -4.6979 H   0  0  0  0  0  0  0  0  0  0  0  0
  -33.5840   10.3727   -2.4729 H   0  0  0  0  0  0  0  0  0  0  0  0
  -36.9014    9.3257   -2.0048 H   0  0  0  0  0  0  0  0  0  0  0  0
  -37.2077   12.7453   -4.9194 H   0  0  0  0  0  0  0  0  0  0  0  0
  -34.8885   13.4429   -5.2079 H   0  0  0  0  0  0  0  0  0  0  0  0
  -29.5624   13.6270   -6.4075 H   0  0  0  0  0  0  0  0  0  0  0  0
  -28.5521   13.5186   -4.9700 H   0  0  0  0  0  0  0  0  0  0  0  0
  -30.7133   15.6398   -4.9795 H   0  0  0  0  0  0  0  0  0  0  0  0
  -29.2964   15.8936   -6.0044 H   0  0  0  0  0  0  0  0  0  0  0  0
  -28.9492   16.8505   -3.7236 H   0  0  0  0  0  0  0  0  0  0  0  0
  -27.8021   15.5306   -4.0370 H   0  0  0  0  0  0  0  0  0  0  0  0
  -29.2170   15.2552   -3.0052 H   0  0  0  0  0  0  0  0  0  0  0  0
  -29.6274   12.2892   -1.5543 H   0  0  0  0  0  0  0  0  0  0  0  0
  -28.6779   13.0895   -2.8012 H   0  0  0  0  0  0  0  0  0  0  0  0
  -23.8204   14.0127   -3.8477 H   0  0  0  0  0  0  0  0  0  0  0  0
  -25.4182   14.5417   -3.3307 H   0  0  0  0  0  0  0  0  0  0  0  0
  -23.3667   11.7053   -4.3054 H   0  0  0  0  0  0  0  0  0  0  0  0
  -23.1538    9.2921   -4.7740 H   0  0  0  0  0  0  0  0  0  0  0  0
  -24.5341    8.2482   -4.5698 H   0  0  0  0  0  0  0  0  0  0  0  0
  1  2  1  0  0  0  0
  1 28  1  0  0  0  0
  1 29  1  0  0  0  0
  1 30  1  0  0  0  0
  2  3  1  0  0  0  0
  3  4  2  0  0  0  0
  3  7  1  0  0  0  0
  4  5  1  0  0  0  0
  4  6  1  0  0  0  0
  5  9  2  0  0  0  0
  5 31  1  0  0  0  0
  6 32  1  0  0  0  0
  7  8  2  0  0  0  0
  7 33  1  0  0  0  0
  8  9  1  0  0  0  0
  8 34  1  0  0  0  0
  9 10  1  0  0  0  0
 10 11  2  0  0  0  0
 10 12  1  0  0  0  0
 11 17  1  0  0  0  0
 12 13  1  0  0  0  0
 13 14  1  0  0  0  0
 13 17  2  0  0  0  0
 14 15  1  0  0  0  0
 14 35  1  0  0  0  0
 14 36  1  0  0  0  0
 15 16  1  0  0  0  0
 15 37  1  0  0  0  0
 15 38  1  0  0  0  0
 16 39  1  0  0  0  0
 16 40  1  0  0  0  0
 16 41  1  0  0  0  0
 17 18  1  0  0  0  0
 18 19  1  0  0  0  0
 18 42  1  0  0  0  0
 18 43  1  0  0  0  0
 19 20  1  0  0  0  0
 20 21  2  0  0  0  0
 20 22  1  0  0  0  0
 21 26  1  0  0  0  0
 22 23  2  0  0  0  0
 23 24  1  0  0  0  0
 23 25  1  0  0  0  0
 24 44  1  0  0  0  0
 24 45  1  0  0  0  0
 25 26  2  0  0  0  0
 25 46  1  0  0  0  0
 26 27  1  0  0  0  0
 27 47  1  0  0  0  0
 27 48  1  0  0  0  0
M  END
$$$$
