2ZT
 OpenBabel04111920293D

 36 39  0  0  0  0  0  0  0  0999 V2000
    4.2517   19.7305   36.9596 C   0  0  0  0  0  0  0  0  0  0  0  0
    4.2963   20.3448   35.6997 C   0  0  0  0  0  0  0  0  0  0  0  0
    3.7126   19.7211   34.6032 C   0  0  0  0  0  0  0  0  0  0  0  0
    3.0848   18.4912   34.7714 C   0  0  0  0  0  0  0  0  0  0  0  0
    3.0448   17.8769   36.0431 C   0  0  0  0  0  0  0  0  0  0  0  0
    2.4258   16.6453   36.2324 C   0  0  0  0  0  0  0  0  0  0  0  0
    2.4042   16.0628   37.4960 C   0  0  0  0  0  0  0  0  0  0  0  0
    3.0203   16.7200   38.5597 C   0  0  0  0  0  0  0  0  0  0  0  0
    3.0237   16.1021   39.9614 C   0  0  0  0  0  0  0  0  0  0  0  0
    3.0172   14.6678   39.8582 O   0  0  0  0  0  0  0  0  0  0  0  0
    3.4835   13.9005   40.8890 C   0  0  0  0  0  0  0  0  0  0  0  0
    3.5260   14.2535   42.2393 C   0  0  0  0  0  0  0  0  0  0  0  0
    4.0005   13.3708   43.2223 C   0  0  0  0  0  0  0  0  0  0  0  0
    4.0316   13.7422   44.5186 N   0  0  0  0  0  0  0  0  0  0  0  0
    4.5101   12.8597   45.4323 C   0  0  0  0  0  0  0  0  0  0  0  0
    4.9675   11.5944   45.1214 C   0  0  0  0  0  0  0  0  0  0  0  0
    4.9299   11.2066   43.7903 C   0  0  0  0  0  0  0  0  0  0  0  0
    4.4440   12.0940   42.8173 C   0  0  0  0  0  0  0  0  0  0  0  0
    4.3941   11.7266   41.4678 C   0  0  0  0  0  0  0  0  0  0  0  0
    3.9074   12.6242   40.5153 C   0  0  0  0  0  0  0  0  0  0  0  0
    3.6160   17.9335   38.3939 N   0  0  0  0  0  0  0  0  0  0  0  0
    3.6334   18.4995   37.1636 C   0  0  0  0  0  0  0  0  0  0  0  0
    4.7162   20.2292   37.8078 H   0  0  0  0  0  0  0  0  0  0  0  0
    4.7894   21.3075   35.5801 H   0  0  0  0  0  0  0  0  0  0  0  0
    3.7454   20.1889   33.6236 H   0  0  0  0  0  0  0  0  0  0  0  0
    2.6281   18.0049   33.9129 H   0  0  0  0  0  0  0  0  0  0  0  0
    1.9623   16.1210   35.3975 H   0  0  0  0  0  0  0  0  0  0  0  0
    1.9240   15.1004   37.6393 H   0  0  0  0  0  0  0  0  0  0  0  0
    2.1181   16.4395   40.4820 H   0  0  0  0  0  0  0  0  0  0  0  0
    3.9099   16.4581   40.4992 H   0  0  0  0  0  0  0  0  0  0  0  0
    3.1643   15.2244   42.5660 H   0  0  0  0  0  0  0  0  0  0  0  0
    4.5146   13.2133   46.4592 H   0  0  0  0  0  0  0  0  0  0  0  0
    5.3431   10.9284   45.8901 H   0  0  0  0  0  0  0  0  0  0  0  0
    5.2792   10.2140   43.5139 H   0  0  0  0  0  0  0  0  0  0  0  0
    4.7354   10.7440   41.1490 H   0  0  0  0  0  0  0  0  0  0  0  0
    3.8710   12.3213   39.4709 H   0  0  0  0  0  0  0  0  0  0  0  0
  1  2  2  0  0  0  0
  1 22  1  0  0  0  0
  1 23  1  0  0  0  0
  2  3  1  0  0  0  0
  2 24  1  0  0  0  0
  3  4  2  0  0  0  0
  3 25  1  0  0  0  0
  4  5  1  0  0  0  0
  4 26  1  0  0  0  0
  5  6  2  0  0  0  0
  5 22  1  0  0  0  0
  6  7  1  0  0  0  0
  6 27  1  0  0  0  0
  7  8  2  0  0  0  0
  7 28  1  0  0  0  0
  8  9  1  0  0  0  0
  8 21  1  0  0  0  0
  9 10  1  0  0  0  0
  9 29  1  0  0  0  0
  9 30  1  0  0  0  0
 10 11  1  0  0  0  0
 11 12  2  0  0  0  0
 11 20  1  0  0  0  0
 12 13  1  0  0  0  0
 12 31  1  0  0  0  0
 13 14  2  0  0  0  0
 13 18  1  0  0  0  0
 14 15  1  0  0  0  0
 15 16  2  0  0  0  0
 15 32  1  0  0  0  0
 16 17  1  0  0  0  0
 16 33  1  0  0  0  0
 17 18  2  0  0  0  0
 17 34  1  0  0  0  0
 18 19  1  0  0  0  0
 19 20  2  0  0  0  0
 19 35  1  0  0  0  0
 20 36  1  0  0  0  0
 21 22  2  0  0  0  0
M  END
$$$$
