31O
 OpenBabel04111921223D

 51 54  0  0  1  0  0  0  0  0999 V2000
   71.9287  -11.2949   73.1346 C   0  0  0  0  0  0  0  0  0  0  0  0
   70.7912  -10.5945   72.6321 O   0  0  0  0  0  0  0  0  0  0  0  0
   70.9530   -9.2368   72.6243 C   0  0  0  0  0  0  0  0  0  0  0  0
   71.9186   -8.6625   73.1170 O   0  0  0  0  0  0  0  0  0  0  0  0
   69.8518   -8.5819   71.8121 C   0  0  2  0  0  0  0  0  0  0  0  0
   70.0693   -9.0224   70.3509 C   0  0  0  0  0  0  0  0  0  0  0  0
   69.9685   -7.0560   71.9282 C   0  0  2  0  0  0  0  0  0  0  0  0
   69.8418   -6.5835   73.3178 N   0  0  0  0  0  0  0  0  0  0  0  0
   68.9289   -6.3218   71.1474 C   0  0  0  0  0  0  0  0  0  0  0  0
   67.8173   -6.7673   70.6027 N   0  0  0  0  0  0  0  0  0  0  0  0
   67.2471   -5.7324   69.9142 N   0  0  0  0  0  0  0  0  0  0  0  0
   68.0022   -4.6600   70.0701 C   0  0  0  0  0  0  0  0  0  0  0  0
   67.6458   -3.3066   69.5923 C   0  0  0  0  0  0  0  0  0  0  0  0
   69.0873   -4.9853   70.8618 N   0  3  0  0  0  0  0  0  0  0  0  0
   70.2036   -4.2168   71.2700 C   0  0  0  0  0  0  0  0  0  0  0  0
   70.7963   -3.3233   70.3697 C   0  0  0  0  0  0  0  0  0  0  0  0
   71.9769   -2.6528   70.7139 C   0  0  0  0  0  0  0  0  0  0  0  0
   72.5725   -2.8632   71.9560 C   0  0  0  0  0  0  0  0  0  0  0  0
   73.7101   -2.2625   72.4157 O   0  0  0  0  0  0  0  0  0  0  0  0
   74.4723   -1.5161   71.4756 C   0  0  0  0  0  0  0  0  0  0  0  0
   71.9866   -3.7562   72.8535 C   0  0  0  0  0  0  0  0  0  0  0  0
   70.8034   -4.4366   72.5268 C   0  0  0  0  0  0  0  0  0  0  0  0
   70.2301   -5.3684   73.5625 C   0  0  0  0  0  0  0  0  0  0  0  0
   70.0982   -4.8582   74.9664 C   0  0  0  0  0  0  0  0  0  0  0  0
   70.2439   -5.7510   76.0352 C   0  0  0  0  0  0  0  0  0  0  0  0
   70.1406   -5.2917   77.3518 C   0  0  0  0  0  0  0  0  0  0  0  0
   69.8853   -3.9435   77.5983 C   0  0  0  0  0  0  0  0  0  0  0  0
   69.7614   -3.3753   79.2172 Cl  0  0  0  0  0  0  0  0  0  0  0  0
   69.7280   -3.0493   76.5408 C   0  0  0  0  0  0  0  0  0  0  0  0
   69.8263   -3.5065   75.2244 C   0  0  0  0  0  0  0  0  0  0  0  0
   71.7062  -12.3645   73.1182 H   0  0  0  0  0  0  0  0  0  0  0  0
   72.1471  -10.9966   74.1643 H   0  0  0  0  0  0  0  0  0  0  0  0
   72.7935  -11.1142   72.4862 H   0  0  0  0  0  0  0  0  0  0  0  0
   68.8795   -8.9266   72.1844 H   0  0  0  0  0  0  0  0  0  0  0  0
   69.9933  -10.1098   70.2439 H   0  0  0  0  0  0  0  0  0  0  0  0
   71.0697   -8.7331   70.0058 H   0  0  0  0  0  0  0  0  0  0  0  0
   69.3420   -8.5809   69.6659 H   0  0  0  0  0  0  0  0  0  0  0  0
   70.9669   -6.8022   71.5406 H   0  0  0  0  0  0  0  0  0  0  0  0
   66.6508   -3.3218   69.1353 H   0  0  0  0  0  0  0  0  0  0  0  0
   68.3410   -2.9489   68.8302 H   0  0  0  0  0  0  0  0  0  0  0  0
   67.6185   -2.5951   70.4230 H   0  0  0  0  0  0  0  0  0  0  0  0
   70.4198   -3.1927   69.3593 H   0  0  0  0  0  0  0  0  0  0  0  0
   72.4199   -1.9906   69.9761 H   0  0  0  0  0  0  0  0  0  0  0  0
   75.3436   -1.1109   71.9991 H   0  0  0  0  0  0  0  0  0  0  0  0
   73.9018   -0.6697   71.0801 H   0  0  0  0  0  0  0  0  0  0  0  0
   74.8339   -2.1622   70.6690 H   0  0  0  0  0  0  0  0  0  0  0  0
   72.4773   -3.9281   73.8106 H   0  0  0  0  0  0  0  0  0  0  0  0
   70.4485   -6.8033   75.8463 H   0  0  0  0  0  0  0  0  0  0  0  0
   70.2614   -5.9899   78.1759 H   0  0  0  0  0  0  0  0  0  0  0  0
   69.5270   -1.9986   76.7331 H   0  0  0  0  0  0  0  0  0  0  0  0
   69.6847   -2.7948   74.4157 H   0  0  0  0  0  0  0  0  0  0  0  0
  1  2  1  0  0  0  0
  1 31  1  0  0  0  0
  1 32  1  0  0  0  0
  1 33  1  0  0  0  0
  2  3  1  0  0  0  0
  3  4  2  0  0  0  0
  3  5  1  0  0  0  0
  5  6  1  0  0  0  0
  5  7  1  0  0  0  0
  5 34  1  1  0  0  0
  6 35  1  0  0  0  0
  6 36  1  0  0  0  0
  6 37  1  0  0  0  0
  7  8  1  0  0  0  0
  7  9  1  0  0  0  0
  7 38  1  6  0  0  0
  8 23  2  0  0  0  0
  9 10  1  0  0  0  0
  9 14  2  0  0  0  0
 10 11  1  0  0  0  0
 11 12  2  0  0  0  0
 12 13  1  0  0  0  0
 12 14  1  0  0  0  0
 13 39  1  0  0  0  0
 13 40  1  0  0  0  0
 13 41  1  0  0  0  0
 14 15  1  0  0  0  0
 15 16  2  0  0  0  0
 15 22  1  0  0  0  0
 16 17  1  0  0  0  0
 16 42  1  0  0  0  0
 17 18  2  0  0  0  0
 17 43  1  0  0  0  0
 18 19  1  0  0  0  0
 18 21  1  0  0  0  0
 19 20  1  0  0  0  0
 20 44  1  0  0  0  0
 20 45  1  0  0  0  0
 20 46  1  0  0  0  0
 21 22  2  0  0  0  0
 21 47  1  0  0  0  0
 22 23  1  0  0  0  0
 23 24  1  0  0  0  0
 24 25  2  0  0  0  0
 24 30  1  0  0  0  0
 25 26  1  0  0  0  0
 25 48  1  0  0  0  0
 26 27  2  0  0  0  0
 26 49  1  0  0  0  0
 27 28  1  0  0  0  0
 27 29  1  0  0  0  0
 29 30  2  0  0  0  0
 29 50  1  0  0  0  0
 30 51  1  0  0  0  0
M  CHG  1  14   1
M  END
$$$$
