31V
 OpenBabel04111921043D

 61 66  0  0  1  0  0  0  0  0999 V2000
   31.5510  -35.1604   -4.9745 C   0  0  0  0  0  0  0  0  0  0  0  0
   32.2008  -35.0624   -6.2059 C   0  0  0  0  0  0  0  0  0  0  0  0
   38.7945  -30.8803  -11.7168 N   0  3  0  0  0  0  0  0  0  0  0  0
   30.4931  -33.5438   -6.9851 C   0  0  0  0  0  0  0  0  0  0  0  0
   29.7002  -34.6201   -3.4945 N   0  3  0  0  0  0  0  0  0  0  0  0
   33.6961  -34.2619   -8.7258 C   0  0  0  0  0  0  0  0  0  0  0  0
   35.9808  -32.7416  -10.2150 C   0  0  0  0  0  0  0  0  0  0  0  0
   38.0040  -31.5080  -10.7535 C   0  0  0  0  0  0  0  0  0  0  0  0
   39.4406  -30.0903   -9.8496 C   0  0  0  0  0  0  0  0  0  0  0  0
   38.4190  -31.0001   -9.5413 C   0  0  0  0  0  0  0  0  0  0  0  0
   40.1767  -29.3261   -8.7702 C   0  0  2  0  0  0  0  0  0  0  0  0
   40.0746  -27.8851   -8.7603 C   0  0  0  0  0  0  0  0  0  0  0  0
   37.4528  -31.4760  -15.1464 C   0  0  0  0  0  0  0  0  0  0  0  0
   39.8392  -31.1095  -15.2686 C   0  0  0  0  0  0  0  0  0  0  0  0
   39.8917  -30.9215  -13.8864 C   0  0  0  0  0  0  0  0  0  0  0  0
   30.2910  -34.9467   -2.2916 C   0  0  0  0  0  0  0  0  0  0  0  0
   35.7793  -32.1795   -9.1433 O   0  0  0  0  0  0  0  0  0  0  0  0
   37.0630  -32.4870  -11.0447 N   0  0  0  0  0  0  0  0  0  0  0  0
   41.2165  -28.4051   -9.1112 C   0  0  0  0  0  0  0  0  0  0  0  0
   39.6912  -30.0253  -11.1608 N   0  0  0  0  0  0  0  0  0  0  0  0
   38.7217  -31.0345  -13.1278 C   0  0  0  0  0  0  0  0  0  0  0  0
   38.6240  -31.3874  -15.8960 C   0  0  0  0  0  0  0  0  0  0  0  0
   37.4985  -31.2934  -13.7664 C   0  0  0  0  0  0  0  0  0  0  0  0
   35.0566  -33.7929  -10.8002 C   0  0  0  0  0  0  0  0  0  0  0  0
   33.8370  -33.9261  -10.0391 N   0  3  0  0  0  0  0  0  0  0  0  0
   32.6464  -33.7016  -10.6223 N   0  0  0  0  0  0  0  0  0  0  0  0
   31.7225  -33.7936   -9.6737 N   0  0  0  0  0  0  0  0  0  0  0  0
   32.3467  -34.1290   -8.4988 C   0  0  0  0  0  0  0  0  0  0  0  0
   31.6776  -34.2561   -7.2210 C   0  0  0  0  0  0  0  0  0  0  0  0
   29.8276  -33.6297   -5.7546 C   0  0  0  0  0  0  0  0  0  0  0  0
   28.7123  -32.8994   -5.4502 O   0  0  0  0  0  0  0  0  0  0  0  0
   28.2948  -31.8865   -6.3503 C   0  0  0  0  0  0  0  0  0  0  0  0
   30.3544  -34.4615   -4.7473 C   0  0  0  0  0  0  0  0  0  0  0  0
   28.3554  -34.5206   -3.2204 C   0  0  0  0  0  0  0  0  0  0  0  0
   28.2049  -34.8000   -1.8830 C   0  0  0  0  0  0  0  0  0  0  0  0
   26.9537  -34.8567   -1.0992 C   0  0  0  0  0  0  0  0  0  0  0  0
   29.4210  -35.0610   -1.3112 N   0  0  0  0  0  0  0  0  0  0  0  0
   31.9749  -35.8297   -4.2296 H   0  0  0  0  0  0  0  0  0  0  0  0
   33.1081  -35.6404   -6.3665 H   0  0  0  0  0  0  0  0  0  0  0  0
   30.1156  -32.9069   -7.7807 H   0  0  0  0  0  0  0  0  0  0  0  0
   34.5388  -34.4590   -8.0797 H   0  0  0  0  0  0  0  0  0  0  0  0
   38.0464  -31.2595   -8.5609 H   0  0  0  0  0  0  0  0  0  0  0  0
   40.1811  -29.7670   -7.7835 H   0  0  0  0  0  0  0  0  0  0  0  0
   39.4695  -27.0481   -8.5469 H   0  0  0  0  0  0  0  0  0  0  0  0
   36.5018  -31.6611  -15.6406 H   0  0  0  0  0  0  0  0  0  0  0  0
   40.7492  -31.0356  -15.8581 H   0  0  0  0  0  0  0  0  0  0  0  0
   40.8490  -30.7217  -13.4082 H   0  0  0  0  0  0  0  0  0  0  0  0
   31.3614  -35.0482   -2.1771 H   0  0  0  0  0  0  0  0  0  0  0  0
   37.0831  -32.9063  -11.9687 H   0  0  0  0  0  0  0  0  0  0  0  0
   42.2188  -28.2628   -9.4384 H   0  0  0  0  0  0  0  0  0  0  0  0
   38.5856  -31.5150  -16.9746 H   0  0  0  0  0  0  0  0  0  0  0  0
   36.5568  -31.2920  -13.2248 H   0  0  0  0  0  0  0  0  0  0  0  0
   35.5574  -34.7660  -10.8106 H   0  0  0  0  0  0  0  0  0  0  0  0
   34.7903  -33.5177  -11.8276 H   0  0  0  0  0  0  0  0  0  0  0  0
   27.4029  -31.4167   -5.9248 H   0  0  0  0  0  0  0  0  0  0  0  0
   28.0148  -32.3118   -7.3180 H   0  0  0  0  0  0  0  0  0  0  0  0
   29.0655  -31.1165   -6.4531 H   0  0  0  0  0  0  0  0  0  0  0  0
   27.6160  -34.3091   -3.9797 H   0  0  0  0  0  0  0  0  0  0  0  0
   27.1573  -35.1035   -0.0542 H   0  0  0  0  0  0  0  0  0  0  0  0
   26.2844  -35.6196   -1.5095 H   0  0  0  0  0  0  0  0  0  0  0  0
   26.4384  -33.8918   -1.1334 H   0  0  0  0  0  0  0  0  0  0  0  0
  1  2  2  0  0  0  0
  1 33  1  0  0  0  0
  1 38  1  0  0  0  0
  2 29  1  0  0  0  0
  2 39  1  0  0  0  0
  3  8  2  0  0  0  0
  3 20  1  0  0  0  0
  3 21  1  0  0  0  0
  4 29  2  0  0  0  0
  4 30  1  0  0  0  0
  4 40  1  0  0  0  0
  5 16  2  0  0  0  0
  5 33  1  0  0  0  0
  5 34  1  0  0  0  0
  6 25  2  0  0  0  0
  6 28  1  0  0  0  0
  6 41  1  0  0  0  0
  7 17  2  0  0  0  0
  7 18  1  0  0  0  0
  7 24  1  0  0  0  0
  8 10  1  0  0  0  0
  8 18  1  0  0  0  0
  9 10  2  0  0  0  0
  9 11  1  0  0  0  0
  9 20  1  0  0  0  0
 10 42  1  0  0  0  0
 11 12  1  0  0  0  0
 11 19  1  0  0  0  0
 11 43  1  1  0  0  0
 12 19  2  0  0  0  0
 12 44  1  0  0  0  0
 13 22  2  0  0  0  0
 13 23  1  0  0  0  0
 13 45  1  0  0  0  0
 14 15  2  0  0  0  0
 14 22  1  0  0  0  0
 14 46  1  0  0  0  0
 15 21  1  0  0  0  0
 15 47  1  0  0  0  0
 16 37  1  0  0  0  0
 16 48  1  0  0  0  0
 18 49  1  0  0  0  0
 19 50  1  0  0  0  0
 21 23  2  0  0  0  0
 22 51  1  0  0  0  0
 23 52  1  0  0  0  0
 24 25  1  0  0  0  0
 24 53  1  0  0  0  0
 24 54  1  0  0  0  0
 25 26  1  0  0  0  0
 26 27  1  0  0  0  0
 27 28  2  0  0  0  0
 28 29  1  0  0  0  0
 30 31  1  0  0  0  0
 30 33  2  0  0  0  0
 31 32  1  0  0  0  0
 32 55  1  0  0  0  0
 32 56  1  0  0  0  0
 32 57  1  0  0  0  0
 34 35  2  0  0  0  0
 34 58  1  0  0  0  0
 35 36  1  0  0  0  0
 35 37  1  0  0  0  0
 36 59  1  0  0  0  0
 36 60  1  0  0  0  0
 36 61  1  0  0  0  0
M  CHG  3   3   1   5   1  25   1
M  END
$$$$
