378
 OpenBabel04111918203D

111113  0  0  1  0  0  0  0  0999 V2000
    7.9813   26.6637    5.7416 C   0  0  0  0  0  0  0  0  0  0  0  0
   10.1204   25.6074    5.7158 N   0  0  0  0  0  0  0  0  0  0  0  0
    8.3227   27.7703    5.3642 O   0  0  0  0  0  0  0  0  0  0  0  0
    8.9162   25.7159    6.5157 C   0  0  1  0  0  0  0  0  0  0  0  0
    9.2029   26.1917    7.9582 C   0  0  0  0  0  0  0  0  0  0  0  0
    5.0061   27.4585    7.3126 C   0  0  0  0  0  0  0  0  0  0  0  0
    4.5365   25.7786    0.7095 C   0  0  0  0  0  0  0  0  0  0  0  0
   19.5099   17.9192    7.1855 C   0  0  0  0  0  0  0  0  0  0  0  0
   14.4241   17.9100    3.9959 C   0  0  0  0  0  0  0  0  0  0  0  0
   16.4214   18.3557    2.5699 C   0  0  0  0  0  0  0  0  0  0  0  0
   14.5948   20.0429    2.6947 C   0  0  0  0  0  0  0  0  0  0  0  0
   18.8005   19.3403    4.9744 O   0  0  0  0  0  0  0  0  0  0  0  0
   16.1865   16.1097   10.8520 S   0  0  0  0  0  0  0  0  0  0  0  0
   13.9317   20.2709    5.6087 O   0  0  0  0  0  0  0  0  0  0  0  0
   10.2664   23.3560    5.9896 O   0  0  0  0  0  0  0  0  0  0  0  0
   12.4912   25.7335    4.4561 O   0  0  0  0  0  0  0  0  0  0  0  0
    5.0594   27.8328    6.0271 C   0  0  0  0  0  0  0  0  0  0  0  0
    5.6905   25.7052    1.3423 C   0  0  0  0  0  0  0  0  0  0  0  0
   17.3004   20.6715    8.7702 C   0  0  0  0  0  0  0  0  0  0  0  0
   15.9591   21.0245    8.8455 C   0  0  0  0  0  0  0  0  0  0  0  0
   17.6765   19.5202    9.3952 C   0  0  0  0  0  0  0  0  0  0  0  0
   15.5352   22.3325    8.2847 C   0  0  0  0  0  0  0  0  0  0  0  0
    7.9732   23.1267    2.8428 C   0  0  0  0  0  0  0  0  0  0  0  0
    8.3755   25.4345    2.1886 C   0  0  0  0  0  0  0  0  0  0  0  0
    9.3009   22.9822    3.0352 C   0  0  0  0  0  0  0  0  0  0  0  0
    9.6894   25.2945    2.3705 C   0  0  0  0  0  0  0  0  0  0  0  0
   17.1436   17.5030   10.6657 C   0  0  0  0  0  0  0  0  0  0  0  0
   18.3317   17.4149   11.3499 C   0  0  0  0  0  0  0  0  0  0  0  0
   16.7175   18.6922    9.9659 C   0  0  0  0  0  0  0  0  0  0  0  0
    5.6627   26.9627    4.9615 C   0  0  0  0  0  0  0  0  0  0  0  0
   13.6634   24.0800    6.2965 C   0  0  0  0  0  0  0  0  0  0  0  0
    6.0293   24.5148    2.1761 C   0  0  0  0  0  0  0  0  0  0  0  0
   15.0674   23.5855    6.3752 C   0  0  0  0  0  0  0  0  0  0  0  0
   12.9691   23.4578    5.1008 C   0  0  0  0  0  0  0  0  0  0  0  0
   17.4002   15.3385   11.7688 C   0  0  0  0  0  0  0  0  0  0  0  0
   11.5966   23.9337    3.1285 C   0  0  0  0  0  0  0  0  0  0  0  0
    6.7149   26.1530    5.5318 N   0  0  0  0  0  0  0  0  0  0  0  0
   16.7313   18.6405    5.5174 N   0  0  0  0  0  0  0  0  0  0  0  0
   15.7933   21.4450    6.1772 N   0  0  0  0  0  0  0  0  0  0  0  0
   18.5406   17.4668    6.2428 O   0  0  0  0  0  0  0  0  0  0  0  0
   18.0808   18.5020    5.5132 C   0  0  0  0  0  0  0  0  0  0  0  0
   15.1400   20.4518    5.5108 C   0  0  0  0  0  0  0  0  0  0  0  0
   10.7250   24.3791    5.5221 C   0  0  0  0  0  0  0  0  0  0  0  0
    7.4862   24.3554    2.3930 C   0  0  0  0  0  0  0  0  0  0  0  0
   18.5128   16.1479   11.8957 C   0  0  0  0  0  0  0  0  0  0  0  0
   10.1655   24.0662    2.8141 C   0  0  0  0  0  0  0  0  0  0  0  0
   15.0069   20.2233    9.4596 C   0  0  0  0  0  0  0  0  0  0  0  0
   15.3827   19.0581   10.0149 C   0  0  0  0  0  0  0  0  0  0  0  0
   16.0953   19.6459    4.6717 C   0  0  2  0  0  0  0  0  0  0  0  0
   15.0246   22.2554    6.9445 N   0  0  0  0  0  0  0  0  0  0  0  0
   15.3790   18.9972    3.4902 C   0  0  0  0  0  0  0  0  0  0  0  0
   11.9293   24.4134    4.5489 C   0  0  2  0  0  0  0  0  0  0  0  0
    9.1017   27.7080    8.0964 C   0  0  0  0  0  0  0  0  0  0  0  0
   10.5891   25.7371    8.4175 C   0  0  0  0  0  0  0  0  0  0  0  0
   10.6019   26.4543    5.4634 H   0  0  0  0  0  0  0  0  0  0  0  0
    8.4520   24.7276    6.5781 H   0  0  0  0  0  0  0  0  0  0  0  0
    8.4541   25.7433    8.6296 H   0  0  0  0  0  0  0  0  0  0  0  0
    4.5911   28.0933    8.0817 H   0  0  0  0  0  0  0  0  0  0  0  0
    5.4017   26.4907    7.6040 H   0  0  0  0  0  0  0  0  0  0  0  0
    4.2829   26.6348    0.0792 H   0  0  0  0  0  0  0  0  0  0  0  0
    3.8064   24.9750    0.8297 H   0  0  0  0  0  0  0  0  0  0  0  0
   19.9358   17.0930    7.7580 H   0  0  0  0  0  0  0  0  0  0  0  0
   18.9253   18.4909    7.8701 H   0  0  0  0  0  0  0  0  0  0  0  0
   20.2998   18.5831    6.8125 H   0  0  0  0  0  0  0  0  0  0  0  0
   13.9064   17.4326    3.1667 H   0  0  0  0  0  0  0  0  0  0  0  0
   13.6663   18.3232    4.6611 H   0  0  0  0  0  0  0  0  0  0  0  0
   14.9679   17.1454    4.5537 H   0  0  0  0  0  0  0  0  0  0  0  0
   17.1185   19.1149    2.1927 H   0  0  0  0  0  0  0  0  0  0  0  0
   15.9406   17.8707    1.7231 H   0  0  0  0  0  0  0  0  0  0  0  0
   17.0024   17.6032    3.1100 H   0  0  0  0  0  0  0  0  0  0  0  0
   13.8272   20.5284    3.3048 H   0  0  0  0  0  0  0  0  0  0  0  0
   14.0788   19.5806    1.8494 H   0  0  0  0  0  0  0  0  0  0  0  0
   15.2588   20.8290    2.3167 H   0  0  0  0  0  0  0  0  0  0  0  0
   11.8133   26.3151    4.0813 H   0  0  0  0  0  0  0  0  0  0  0  0
    4.6688   28.8104    5.7424 H   0  0  0  0  0  0  0  0  0  0  0  0
    6.3763   26.5227    1.1607 H   0  0  0  0  0  0  0  0  0  0  0  0
   18.0375   21.2985    8.2574 H   0  0  0  0  0  0  0  0  0  0  0  0
   18.7333   19.2635    9.4351 H   0  0  0  0  0  0  0  0  0  0  0  0
   16.4281   22.9534    8.2812 H   0  0  0  0  0  0  0  0  0  0  0  0
   14.7418   22.7315    8.9063 H   0  0  0  0  0  0  0  0  0  0  0  0
    7.2804   22.2915    3.0460 H   0  0  0  0  0  0  0  0  0  0  0  0
    8.0235   26.4163    1.8729 H   0  0  0  0  0  0  0  0  0  0  0  0
    9.7202   22.0294    3.3802 H   0  0  0  0  0  0  0  0  0  0  0  0
   10.3594   26.1276    2.1793 H   0  0  0  0  0  0  0  0  0  0  0  0
   19.0228   18.2481   11.4445 H   0  0  0  0  0  0  0  0  0  0  0  0
    6.0703   27.5653    4.1458 H   0  0  0  0  0  0  0  0  0  0  0  0
    4.8949   26.2926    4.5659 H   0  0  0  0  0  0  0  0  0  0  0  0
   13.7182   25.1683    6.2119 H   0  0  0  0  0  0  0  0  0  0  0  0
   13.1045   23.8567    7.2128 H   0  0  0  0  0  0  0  0  0  0  0  0
    5.6651   23.5990    1.6948 H   0  0  0  0  0  0  0  0  0  0  0  0
    5.5764   24.6123    3.1586 H   0  0  0  0  0  0  0  0  0  0  0  0
   15.6803   24.2454    6.9835 H   0  0  0  0  0  0  0  0  0  0  0  0
   15.5378   23.5591    5.3810 H   0  0  0  0  0  0  0  0  0  0  0  0
   12.5123   22.5008    5.3866 H   0  0  0  0  0  0  0  0  0  0  0  0
   13.7032   23.2322    4.3148 H   0  0  0  0  0  0  0  0  0  0  0  0
   17.2717   14.3543   12.1654 H   0  0  0  0  0  0  0  0  0  0  0  0
   12.1458   24.5148    2.3798 H   0  0  0  0  0  0  0  0  0  0  0  0
   11.8498   22.8788    2.9827 H   0  0  0  0  0  0  0  0  0  0  0  0
    6.5363   25.1902    5.7796 H   0  0  0  0  0  0  0  0  0  0  0  0
   16.1614   17.9951    6.0785 H   0  0  0  0  0  0  0  0  0  0  0  0
   16.8054   21.5247    6.2240 H   0  0  0  0  0  0  0  0  0  0  0  0
   19.4159   15.8861   12.4175 H   0  0  0  0  0  0  0  0  0  0  0  0
   13.9538   20.5477    9.5027 H   0  0  0  0  0  0  0  0  0  0  0  0
   14.6573   18.4280   10.5317 H   0  0  0  0  0  0  0  0  0  0  0  0
   16.8525   20.3424    4.2761 H   0  0  0  0  0  0  0  0  0  0  0  0
    9.2990   28.0315    9.1204 H   0  0  0  0  0  0  0  0  0  0  0  0
    8.0952   28.0536    7.8380 H   0  0  0  0  0  0  0  0  0  0  0  0
    9.8197   28.1991    7.4304 H   0  0  0  0  0  0  0  0  0  0  0  0
   10.6807   24.6492    8.3411 H   0  0  0  0  0  0  0  0  0  0  0  0
   10.7816   26.0294    9.4510 H   0  0  0  0  0  0  0  0  0  0  0  0
   11.3669   26.1938    7.7929 H   0  0  0  0  0  0  0  0  0  0  0  0
  1  3  2  0  0  0  0
  1  4  1  0  0  0  0
  1 37  1  0  0  0  0
  2  4  1  0  0  0  0
  2 43  1  0  0  0  0
  2 55  1  0  0  0  0
  4  5  1  0  0  0  0
  4 56  1  1  0  0  0
  5 53  1  0  0  0  0
  5 54  1  0  0  0  0
  5 57  1  0  0  0  0
  6 17  2  0  0  0  0
  6 58  1  0  0  0  0
  6 59  1  0  0  0  0
  7 18  2  0  0  0  0
  7 60  1  0  0  0  0
  7 61  1  0  0  0  0
  8 40  1  0  0  0  0
  8 62  1  0  0  0  0
  8 63  1  0  0  0  0
  8 64  1  0  0  0  0
  9 51  1  0  0  0  0
  9 65  1  0  0  0  0
  9 66  1  0  0  0  0
  9 67  1  0  0  0  0
 10 51  1  0  0  0  0
 10 68  1  0  0  0  0
 10 69  1  0  0  0  0
 10 70  1  0  0  0  0
 11 51  1  0  0  0  0
 11 71  1  0  0  0  0
 11 72  1  0  0  0  0
 11 73  1  0  0  0  0
 12 41  2  0  0  0  0
 13 27  1  0  0  0  0
 13 35  1  0  0  0  0
 14 42  2  0  0  0  0
 15 43  2  0  0  0  0
 16 74  1  0  0  0  0
 17 30  1  0  0  0  0
 17 75  1  0  0  0  0
 18 32  1  0  0  0  0
 18 76  1  0  0  0  0
 19 20  2  0  0  0  0
 19 21  1  0  0  0  0
 19 77  1  0  0  0  0
 20 22  1  0  0  0  0
 20 47  1  0  0  0  0
 21 29  2  0  0  0  0
 21 78  1  0  0  0  0
 22 50  1  0  0  0  0
 22 79  1  0  0  0  0
 22 80  1  0  0  0  0
 23 25  2  0  0  0  0
 23 44  1  0  0  0  0
 23 81  1  0  0  0  0
 24 26  1  0  0  0  0
 24 44  2  0  0  0  0
 24 82  1  0  0  0  0
 25 46  1  0  0  0  0
 25 83  1  0  0  0  0
 26 46  2  0  0  0  0
 26 84  1  0  0  0  0
 27 28  2  0  0  0  0
 27 29  1  0  0  0  0
 28 45  1  0  0  0  0
 28 85  1  0  0  0  0
 29 48  1  0  0  0  0
 30 37  1  0  0  0  0
 30 86  1  0  0  0  0
 30 87  1  0  0  0  0
 31 33  1  0  0  0  0
 31 34  1  0  0  0  0
 31 88  1  0  0  0  0
 31 89  1  0  0  0  0
 32 44  1  0  0  0  0
 32 90  1  0  0  0  0
 32 91  1  0  0  0  0
 33 50  1  0  0  0  0
 33 92  1  0  0  0  0
 33 93  1  0  0  0  0
 34 52  1  0  0  0  0
 34 94  1  0  0  0  0
 34 95  1  0  0  0  0
 35 45  2  0  0  0  0
 35 96  1  0  0  0  0
 36 46  1  0  0  0  0
 36 52  1  0  0  0  0
 36 97  1  0  0  0  0
 36 98  1  0  0  0  0
 37 99  1  0  0  0  0
 38 41  1  0  0  0  0
 38 49  1  0  0  0  0
 38100  1  0  0  0  0
 39 42  1  0  0  0  0
 39 50  1  0  0  0  0
 39101  1  0  0  0  0
 40 41  1  0  0  0  0
 42 49  1  0  0  0  0
 43 52  1  0  0  0  0
 45102  1  0  0  0  0
 47 48  2  0  0  0  0
 47103  1  0  0  0  0
 48104  1  0  0  0  0
 49 51  1  0  0  0  0
 49105  1  6  0  0  0
 52 16  1  6  0  0  0
 53106  1  0  0  0  0
 53107  1  0  0  0  0
 53108  1  0  0  0  0
 54109  1  0  0  0  0
 54110  1  0  0  0  0
 54111  1  0  0  0  0
M  END
$$$$
