3D0
 OpenBabel04111922003D

 90 91  0  0  1  0  0  0  0  0999 V2000
    2.7011   28.5468    2.9954 C   0  0  0  0  0  0  0  0  0  0  0  0
    3.5376   29.5713    2.5460 C   0  0  0  0  0  0  0  0  0  0  0  0
    4.9093   29.5103    2.7819 C   0  0  0  0  0  0  0  0  0  0  0  0
    5.4461   28.4267    3.4759 C   0  0  0  0  0  0  0  0  0  0  0  0
    4.6151   27.3884    3.9079 C   0  0  0  0  0  0  0  0  0  0  0  0
    3.2330   27.4272    3.6574 C   0  0  0  0  0  0  0  0  0  0  0  0
    2.2863   26.3599    4.2109 C   0  0  0  0  0  0  0  0  0  0  0  0
    2.2814   26.2362    5.7642 C   0  0  2  0  0  0  0  0  0  0  0  0
    0.9704   25.6509    6.3410 C   0  0  0  0  0  0  0  0  0  0  0  0
    0.9314   25.1872    7.4946 O   0  0  0  0  0  0  0  0  0  0  0  0
   -0.1922   25.7676    5.6430 N   0  0  0  0  0  0  0  0  0  0  0  0
    2.5935   27.5773    6.2723 N   0  0  0  0  0  0  0  0  0  0  0  0
    2.3641   28.1675    7.4746 C   0  0  0  0  0  0  0  0  0  0  0  0
    1.6514   27.7994    8.3750 O   0  0  0  0  0  0  0  0  0  0  0  0
    3.0849   29.5218    7.5790 C   0  0  2  0  0  0  0  0  0  0  0  0
    4.6107   29.4006    7.6865 C   0  0  2  0  0  0  0  0  0  0  0  0
    5.0443   28.0795    8.3075 C   0  0  0  0  0  0  0  0  0  0  0  0
    5.1028   30.4662    8.5122 O   0  0  0  0  0  0  0  0  0  0  0  0
    2.5662   30.3043    8.7432 N   0  3  0  0  0  0  0  0  0  0  0  0
    1.6363   31.3631    8.3225 C   0  0  0  0  0  0  0  0  0  0  0  0
    1.2466   32.2768    9.4763 C   0  0  2  0  0  0  0  0  0  0  0  0
    1.6063   33.6726    9.2185 N   0  0  0  0  0  0  0  0  0  0  0  0
    2.8944   34.1951    9.2320 C   0  0  0  0  0  0  0  0  0  0  0  0
    3.8879   33.4659    9.2369 O   0  0  0  0  0  0  0  0  0  0  0  0
    2.9274   35.7417    9.0054 C   0  0  2  0  0  0  0  0  0  0  0  0
    1.9744   36.2928   10.0040 N   0  0  0  0  0  0  0  0  0  0  0  0
    2.4194   37.0696   11.0460 C   0  0  0  0  0  0  0  0  0  0  0  0
    3.5398   37.5137   11.0813 O   0  0  0  0  0  0  0  0  0  0  0  0
    1.3884   37.3943   12.1289 C   0  0  0  0  0  0  0  0  0  0  0  0
    2.4770   36.0473    7.5566 C   0  0  0  0  0  0  0  0  0  0  0  0
    2.0116   37.4905    7.3164 C   0  0  0  0  0  0  0  0  0  0  0  0
    1.5742   37.7347    5.8597 C   0  0  0  0  0  0  0  0  0  0  0  0
    0.7861   39.0387    5.7209 C   0  0  0  0  0  0  0  0  0  0  0  0
    0.0178   39.0415    4.4492 N   0  3  0  0  0  0  0  0  0  0  0  0
    1.7548   31.8065   10.8427 C   0  0  0  0  0  0  0  0  0  0  0  0
    1.3278   32.6928   11.8680 O   0  0  0  0  0  0  0  0  0  0  0  0
   -0.0644   32.5990   12.1637 C   0  0  0  0  0  0  0  0  0  0  0  0
   -0.3934   31.3091   12.8439 C   0  0  0  0  0  0  0  0  0  0  0  0
    0.4544   30.7515   13.8051 C   0  0  0  0  0  0  0  0  0  0  0  0
    0.1170   29.5462   14.4068 C   0  0  0  0  0  0  0  0  0  0  0  0
   -1.0672   28.9382   14.0301 C   0  0  0  0  0  0  0  0  0  0  0  0
   -1.9079   29.4458   13.1003 N   0  0  0  0  0  0  0  0  0  0  0  0
   -1.5613   30.6215   12.5397 C   0  0  0  0  0  0  0  0  0  0  0  0
    1.6297   28.6280    2.8205 H   0  0  0  0  0  0  0  0  0  0  0  0
    3.1198   30.4045    1.9848 H   0  0  0  0  0  0  0  0  0  0  0  0
    5.5644   30.2937    2.4038 H   0  0  0  0  0  0  0  0  0  0  0  0
    6.5191   28.3776    3.6573 H   0  0  0  0  0  0  0  0  0  0  0  0
    5.0525   26.5677    4.4754 H   0  0  0  0  0  0  0  0  0  0  0  0
    2.5030   25.3941    3.7433 H   0  0  0  0  0  0  0  0  0  0  0  0
    1.2883   26.6458    3.8769 H   0  0  0  0  0  0  0  0  0  0  0  0
    3.0880   25.5366    6.0437 H   0  0  0  0  0  0  0  0  0  0  0  0
   -1.0277   25.3773    6.0581 H   0  0  0  0  0  0  0  0  0  0  0  0
   -0.2786   26.0647    4.6864 H   0  0  0  0  0  0  0  0  0  0  0  0
    3.3072   28.0366    5.7236 H   0  0  0  0  0  0  0  0  0  0  0  0
    2.8475   30.1150    6.6862 H   0  0  0  0  0  0  0  0  0  0  0  0
    5.0446   29.4905    6.6847 H   0  0  0  0  0  0  0  0  0  0  0  0
    6.1333   28.0112    8.3533 H   0  0  0  0  0  0  0  0  0  0  0  0
    4.6940   27.2275    7.7189 H   0  0  0  0  0  0  0  0  0  0  0  0
    4.6546   27.9804    9.3262 H   0  0  0  0  0  0  0  0  0  0  0  0
    4.9952   31.3341    8.0702 H   0  0  0  0  0  0  0  0  0  0  0  0
    2.1183   29.6162    9.3816 H   0  0  0  0  0  0  0  0  0  0  0  0
    0.7557   30.8679    7.8924 H   0  0  0  0  0  0  0  0  0  0  0  0
    2.1208   31.9432    7.5278 H   0  0  0  0  0  0  0  0  0  0  0  0
    0.1497   32.2699    9.4839 H   0  0  0  0  0  0  0  0  0  0  0  0
    0.8289   34.3087    9.1173 H   0  0  0  0  0  0  0  0  0  0  0  0
    3.9363   36.1360    9.1711 H   0  0  0  0  0  0  0  0  0  0  0  0
    1.0602   35.8679   10.0807 H   0  0  0  0  0  0  0  0  0  0  0  0
    1.8480   38.0724   12.8528 H   0  0  0  0  0  0  0  0  0  0  0  0
    1.0742   36.4962   12.6605 H   0  0  0  0  0  0  0  0  0  0  0  0
    0.5257   37.8982   11.6938 H   0  0  0  0  0  0  0  0  0  0  0  0
    1.6558   35.3742    7.2807 H   0  0  0  0  0  0  0  0  0  0  0  0
    3.2984   35.8095    6.8682 H   0  0  0  0  0  0  0  0  0  0  0  0
    2.8144   38.1877    7.5790 H   0  0  0  0  0  0  0  0  0  0  0  0
    1.1621   37.6981    7.9766 H   0  0  0  0  0  0  0  0  0  0  0  0
    0.9677   36.8897    5.5112 H   0  0  0  0  0  0  0  0  0  0  0  0
    2.4626   37.7787    5.2165 H   0  0  0  0  0  0  0  0  0  0  0  0
    1.4455   39.9104    5.6927 H   0  0  0  0  0  0  0  0  0  0  0  0
    0.0479   39.1531    6.5191 H   0  0  0  0  0  0  0  0  0  0  0  0
   -0.5214   39.9141    4.3478 H   0  0  0  0  0  0  0  0  0  0  0  0
    0.6293   38.9771    3.6239 H   0  0  0  0  0  0  0  0  0  0  0  0
    2.8493   31.8028   10.8580 H   0  0  0  0  0  0  0  0  0  0  0  0
    1.4339   30.7779   11.0468 H   0  0  0  0  0  0  0  0  0  0  0  0
   -0.6490   32.7212   11.2471 H   0  0  0  0  0  0  0  0  0  0  0  0
   -0.3178   33.4470   12.8026 H   0  0  0  0  0  0  0  0  0  0  0  0
    1.3816   31.2505   14.0780 H   0  0  0  0  0  0  0  0  0  0  0  0
    0.7585   29.0944   15.1554 H   0  0  0  0  0  0  0  0  0  0  0  0
   -1.3775   28.0002   14.4827 H   0  0  0  0  0  0  0  0  0  0  0  0
   -2.2698   30.9968   11.8058 H   0  0  0  0  0  0  0  0  0  0  0  0
    3.3913   30.6832    9.2481 H   0  0  0  0  0  0  0  0  0  0  0  0
   -0.6621   38.2712    4.4021 H   0  0  0  0  0  0  0  0  0  0  0  0
  1  2  2  0  0  0  0
  1  6  1  0  0  0  0
  1 44  1  0  0  0  0
  2  3  1  0  0  0  0
  2 45  1  0  0  0  0
  3  4  2  0  0  0  0
  3 46  1  0  0  0  0
  4  5  1  0  0  0  0
  4 47  1  0  0  0  0
  5  6  2  0  0  0  0
  5 48  1  0  0  0  0
  6  7  1  0  0  0  0
  7  8  1  0  0  0  0
  7 49  1  0  0  0  0
  7 50  1  0  0  0  0
  8  9  1  0  0  0  0
  8 12  1  0  0  0  0
  8 51  1  1  0  0  0
  9 10  2  0  0  0  0
  9 11  1  0  0  0  0
 11 52  1  0  0  0  0
 11 53  1  0  0  0  0
 12 13  1  0  0  0  0
 12 54  1  0  0  0  0
 13 14  2  0  0  0  0
 13 15  1  0  0  0  0
 15 16  1  0  0  0  0
 15 19  1  0  0  0  0
 15 55  1  6  0  0  0
 16 17  1  0  0  0  0
 16 18  1  0  0  0  0
 16 56  1  6  0  0  0
 17 57  1  0  0  0  0
 17 58  1  0  0  0  0
 17 59  1  0  0  0  0
 18 60  1  0  0  0  0
 19 20  1  0  0  0  0
 19 61  1  0  0  0  0
 19 89  1  0  0  0  0
 20 21  1  0  0  0  0
 20 62  1  0  0  0  0
 20 63  1  0  0  0  0
 21 22  1  0  0  0  0
 21 35  1  0  0  0  0
 21 64  1  1  0  0  0
 22 23  1  0  0  0  0
 22 65  1  0  0  0  0
 23 24  2  0  0  0  0
 23 25  1  0  0  0  0
 25 26  1  0  0  0  0
 25 30  1  0  0  0  0
 25 66  1  1  0  0  0
 26 27  1  0  0  0  0
 26 67  1  0  0  0  0
 27 28  2  0  0  0  0
 27 29  1  0  0  0  0
 29 68  1  0  0  0  0
 29 69  1  0  0  0  0
 29 70  1  0  0  0  0
 30 31  1  0  0  0  0
 30 71  1  0  0  0  0
 30 72  1  0  0  0  0
 31 32  1  0  0  0  0
 31 73  1  0  0  0  0
 31 74  1  0  0  0  0
 32 33  1  0  0  0  0
 32 75  1  0  0  0  0
 32 76  1  0  0  0  0
 33 34  1  0  0  0  0
 33 77  1  0  0  0  0
 33 78  1  0  0  0  0
 34 79  1  0  0  0  0
 34 80  1  0  0  0  0
 34 90  1  0  0  0  0
 35 36  1  0  0  0  0
 35 81  1  0  0  0  0
 35 82  1  0  0  0  0
 36 37  1  0  0  0  0
 37 38  1  0  0  0  0
 37 83  1  0  0  0  0
 37 84  1  0  0  0  0
 38 39  2  0  0  0  0
 38 43  1  0  0  0  0
 39 40  1  0  0  0  0
 39 85  1  0  0  0  0
 40 41  2  0  0  0  0
 40 86  1  0  0  0  0
 41 42  1  0  0  0  0
 41 87  1  0  0  0  0
 42 43  2  0  0  0  0
 43 88  1  0  0  0  0
M  CHG  2  19   1  34   1
M  END
$$$$
