3DQ
 OpenBabel04111918003D

 39 40  0  0  1  0  0  0  0  0999 V2000
   26.1324   50.1523  -20.2348 C   0  0  0  0  0  0  0  0  0  0  0  0
   25.2757   49.1517  -19.6608 O   0  0  0  0  0  0  0  0  0  0  0  0
   25.0469   49.2601  -18.3098 C   0  0  0  0  0  0  0  0  0  0  0  0
   23.7271   49.2939  -17.8380 C   0  0  0  0  0  0  0  0  0  0  0  0
   23.4751   49.3641  -16.4449 C   0  0  0  0  0  0  0  0  0  0  0  0
   26.0905   49.2259  -17.3896 C   0  0  0  0  0  0  0  0  0  0  0  0
   25.8357   49.2825  -16.0093 C   0  0  0  0  0  0  0  0  0  0  0  0
   24.5301   49.3600  -15.5105 C   0  0  0  0  0  0  0  0  0  0  0  0
   24.3076   49.4830  -13.9979 C   0  0  0  0  0  0  0  0  0  0  0  0
   22.9483   47.5559  -13.6807 C   0  0  0  0  0  0  0  0  0  0  0  0
   22.9770   46.7533  -14.6270 O   0  0  0  0  0  0  0  0  0  0  0  0
   21.6262   48.1060  -13.1577 C   0  0  1  0  0  0  0  0  0  0  0  0
   24.2140   48.1832  -13.1721 C   0  0  2  0  0  0  0  0  0  0  0  0
   20.5017   47.3432  -13.6253 O   0  0  0  0  0  0  0  0  0  0  0  0
   21.6487   48.1626  -11.6278 C   0  0  2  0  0  0  0  0  0  0  0  0
   20.4297   48.8046  -11.2083 O   0  0  0  0  0  0  0  0  0  0  0  0
   22.8470   48.9787  -11.1120 C   0  0  0  0  0  0  0  0  0  0  0  0
   24.1501   48.3668  -11.6155 C   0  0  2  0  0  0  0  0  0  0  0  0
   25.4193   49.1697  -11.1836 C   0  0  0  0  0  0  0  0  0  0  0  0
   25.2510   50.3004  -10.7316 O   0  0  0  0  0  0  0  0  0  0  0  0
   26.4896   48.5028  -11.3681 O   0  0  0  0  0  0  0  0  0  0  0  0
   24.2257   47.0644  -10.9562 O   0  0  0  0  0  0  0  0  0  0  0  0
   26.2437   49.9332  -21.3090 H   0  0  0  0  0  0  0  0  0  0  0  0
   27.1360   50.1597  -19.7922 H   0  0  0  0  0  0  0  0  0  0  0  0
   25.6790   51.1481  -20.1428 H   0  0  0  0  0  0  0  0  0  0  0  0
   22.8915   49.2878  -18.5373 H   0  0  0  0  0  0  0  0  0  0  0  0
   22.4451   49.4243  -16.0991 H   0  0  0  0  0  0  0  0  0  0  0  0
   27.1132   49.1528  -17.7390 H   0  0  0  0  0  0  0  0  0  0  0  0
   26.6752   49.2836  -15.3178 H   0  0  0  0  0  0  0  0  0  0  0  0
   23.3816   50.0463  -13.8474 H   0  0  0  0  0  0  0  0  0  0  0  0
   25.1270   50.0749  -13.5852 H   0  0  0  0  0  0  0  0  0  0  0  0
   21.4728   49.1304  -13.5235 H   0  0  0  0  0  0  0  0  0  0  0  0
   25.0463   47.5116  -13.4193 H   0  0  0  0  0  0  0  0  0  0  0  0
   20.5033   47.3973  -14.6001 H   0  0  0  0  0  0  0  0  0  0  0  0
   21.6689   47.1475  -11.2037 H   0  0  0  0  0  0  0  0  0  0  0  0
   19.6988   48.2695  -11.5717 H   0  0  0  0  0  0  0  0  0  0  0  0
   22.8466   48.9798  -10.0076 H   0  0  0  0  0  0  0  0  0  0  0  0
   22.7596   50.0267  -11.4251 H   0  0  0  0  0  0  0  0  0  0  0  0
   25.0902   46.6915  -11.2064 H   0  0  0  0  0  0  0  0  0  0  0  0
  1  2  1  0  0  0  0
  1 23  1  0  0  0  0
  1 24  1  0  0  0  0
  1 25  1  0  0  0  0
  2  3  1  0  0  0  0
  3  4  2  0  0  0  0
  3  6  1  0  0  0  0
  4  5  1  0  0  0  0
  4 26  1  0  0  0  0
  5  8  2  0  0  0  0
  5 27  1  0  0  0  0
  6  7  2  0  0  0  0
  6 28  1  0  0  0  0
  7  8  1  0  0  0  0
  7 29  1  0  0  0  0
  8  9  1  0  0  0  0
  9 13  1  0  0  0  0
  9 30  1  0  0  0  0
  9 31  1  0  0  0  0
 10 11  2  0  0  0  0
 10 12  1  0  0  0  0
 10 13  1  0  0  0  0
 12 14  1  0  0  0  0
 12 15  1  0  0  0  0
 12 32  1  6  0  0  0
 13 18  1  0  0  0  0
 13 33  1  6  0  0  0
 14 34  1  0  0  0  0
 15 16  1  0  0  0  0
 15 17  1  0  0  0  0
 15 35  1  1  0  0  0
 16 36  1  0  0  0  0
 17 18  1  0  0  0  0
 17 37  1  0  0  0  0
 17 38  1  0  0  0  0
 18 19  1  1  0  0  0
 18 22  1  0  0  0  0
 19 20  2  0  0  0  0
 19 21  1  0  0  0  0
 22 39  1  0  0  0  0
M  END
$$$$
