3EF
 OpenBabel04111918133D

 87 91  0  0  1  0  0  0  0  0999 V2000
   -3.4122  -19.3029  -24.0558 O   0  0  0  0  0  0  0  0  0  0  0  0
   -6.0495  -22.1270  -18.3071 C   0  0  0  0  0  0  0  0  0  0  0  0
   -6.6388  -22.5662  -19.4934 C   0  0  0  0  0  0  0  0  0  0  0  0
   -4.9235  -21.3036  -18.3386 C   0  0  0  0  0  0  0  0  0  0  0  0
   -6.1042  -22.1789  -20.7187 C   0  0  0  0  0  0  0  0  0  0  0  0
   -4.3857  -20.9202  -19.5598 C   0  0  0  0  0  0  0  0  0  0  0  0
   -4.3953  -20.8896  -22.0693 C   0  0  0  0  0  0  0  0  0  0  0  0
   -4.2695  -19.4700  -21.9621 O   0  0  0  0  0  0  0  0  0  0  0  0
   -3.5369  -18.8671  -22.9222 C   0  0  0  0  0  0  0  0  0  0  0  0
   -4.9789  -21.3463  -20.7578 C   0  0  0  0  0  0  0  0  0  0  0  0
   -0.2003  -17.3341  -21.3045 O   0  0  0  0  0  0  0  0  0  0  0  0
   -0.4000  -17.4519  -22.7999 P   0  0  1  0  0  0  0  0  0  0  0  0
   -0.1590  -18.7779  -23.4968 O   0  0  0  0  0  0  0  0  0  0  0  0
   -2.1093  -16.8631  -23.2070 C   0  0  1  0  0  0  0  0  0  0  0  0
   -3.0456  -17.6990  -22.4470 N   0  0  0  0  0  0  0  0  0  0  0  0
   -2.3703  -15.4010  -22.8502 C   0  0  0  0  0  0  0  0  0  0  0  0
   -3.7980  -15.0127  -23.1450 C   0  0  0  0  0  0  0  0  0  0  0  0
   -4.1816  -14.6267  -24.4283 C   0  0  0  0  0  0  0  0  0  0  0  0
   -5.4956  -14.2926  -24.7011 C   0  0  0  0  0  0  0  0  0  0  0  0
   -6.4644  -14.3643  -23.6802 C   0  0  0  0  0  0  0  0  0  0  0  0
   -6.0830  -14.7741  -22.4036 C   0  0  0  0  0  0  0  0  0  0  0  0
   -4.7662  -15.0948  -22.1300 C   0  0  0  0  0  0  0  0  0  0  0  0
    1.0824  -14.1079  -21.9901 O   0  0  0  0  0  0  0  0  0  0  0  0
    9.4746  -19.0290  -22.0387 C   0  0  0  0  0  0  0  0  0  0  0  0
    8.1291  -19.4174  -21.9582 C   0  0  0  0  0  0  0  0  0  0  0  0
    9.8108  -17.7492  -22.4729 C   0  0  0  0  0  0  0  0  0  0  0  0
    7.1598  -18.5298  -22.3111 C   0  0  0  0  0  0  0  0  0  0  0  0
    8.8155  -16.8458  -22.8303 C   0  0  0  0  0  0  0  0  0  0  0  0
    5.1004  -16.7667  -23.3649 C   0  0  0  0  0  0  0  0  0  0  0  0
    2.9756  -15.5967  -24.1488 C   0  0  0  0  0  0  0  0  0  0  0  0
    0.6333  -16.2346  -23.6624 C   0  0  0  0  0  0  0  0  0  0  0  0
    6.5393  -15.0414  -23.5054 N   0  0  0  0  0  0  0  0  0  0  0  0
    5.2512  -14.6205  -23.8882 O   0  0  0  0  0  0  0  0  0  0  0  0
    1.9141  -14.9965  -21.9525 C   0  0  0  0  0  0  0  0  0  0  0  0
    4.4020  -15.6850  -23.7852 C   0  0  0  0  0  0  0  0  0  0  0  0
    7.4772  -17.2200  -22.7509 C   0  0  0  0  0  0  0  0  0  0  0  0
    6.4192  -16.3326  -23.1707 C   0  0  0  0  0  0  0  0  0  0  0  0
    2.0209  -16.0745  -23.0366 C   0  0  2  0  0  0  0  0  0  0  0  0
    2.8676  -15.0946  -20.9567 N   0  0  0  0  0  0  0  0  0  0  0  0
    3.0463  -13.9532  -20.0462 C   0  0  2  0  0  0  0  0  0  0  0  0
    3.6157  -12.6399  -20.6761 C   0  0  0  0  0  0  0  0  0  0  0  0
    3.5201  -11.6021  -19.9481 O   0  0  0  0  0  0  0  0  0  0  0  0
    3.9049  -14.2717  -18.8134 C   0  0  0  0  0  0  0  0  0  0  0  0
    4.9718  -15.3114  -18.9691 C   0  0  0  0  0  0  0  0  0  0  0  0
    6.3022  -14.9304  -19.1498 C   0  0  0  0  0  0  0  0  0  0  0  0
    4.6253  -16.6709  -18.8976 C   0  0  0  0  0  0  0  0  0  0  0  0
    7.2869  -15.9043  -19.2592 C   0  0  0  0  0  0  0  0  0  0  0  0
    5.6043  -17.6363  -19.0111 C   0  0  0  0  0  0  0  0  0  0  0  0
    6.9295  -17.2509  -19.1732 C   0  0  0  0  0  0  0  0  0  0  0  0
    7.8703  -18.2360  -19.2314 O   0  0  0  0  0  0  0  0  0  0  0  0
    4.1545  -12.7474  -21.8150 O   0  0  0  0  0  0  0  0  0  0  0  0
   -6.4677  -22.4241  -17.3516 H   0  0  0  0  0  0  0  0  0  0  0  0
   -7.5156  -23.2059  -19.4640 H   0  0  0  0  0  0  0  0  0  0  0  0
   -4.4626  -20.9554  -17.4181 H   0  0  0  0  0  0  0  0  0  0  0  0
   -6.5671  -22.5134  -21.6435 H   0  0  0  0  0  0  0  0  0  0  0  0
   -3.5107  -20.2688  -19.5942 H   0  0  0  0  0  0  0  0  0  0  0  0
   -3.4143  -21.3650  -22.1857 H   0  0  0  0  0  0  0  0  0  0  0  0
   -5.0591  -21.1958  -22.8884 H   0  0  0  0  0  0  0  0  0  0  0  0
   -2.2688  -17.0275  -24.2790 H   0  0  0  0  0  0  0  0  0  0  0  0
   -3.0918  -17.5165  -21.4517 H   0  0  0  0  0  0  0  0  0  0  0  0
   -1.7322  -14.7189  -23.4158 H   0  0  0  0  0  0  0  0  0  0  0  0
   -2.1578  -15.2236  -21.7885 H   0  0  0  0  0  0  0  0  0  0  0  0
   -3.4285  -14.5860  -25.2224 H   0  0  0  0  0  0  0  0  0  0  0  0
   -5.7738  -13.9789  -25.6918 H   0  0  0  0  0  0  0  0  0  0  0  0
   -7.4920  -14.1094  -23.8877 H   0  0  0  0  0  0  0  0  0  0  0  0
   -6.8291  -14.8430  -21.6079 H   0  0  0  0  0  0  0  0  0  0  0  0
   -4.4722  -15.4237  -21.1359 H   0  0  0  0  0  0  0  0  0  0  0  0
   10.2382  -19.7447  -21.7686 H   0  0  0  0  0  0  0  0  0  0  0  0
    7.8540  -20.3965  -21.5822 H   0  0  0  0  0  0  0  0  0  0  0  0
   10.8544  -17.4536  -22.5704 H   0  0  0  0  0  0  0  0  0  0  0  0
    6.1102  -18.8357  -22.2000 H   0  0  0  0  0  0  0  0  0  0  0  0
    9.0730  -15.8598  -23.2123 H   0  0  0  0  0  0  0  0  0  0  0  0
    4.6809  -17.7520  -23.2308 H   0  0  0  0  0  0  0  0  0  0  0  0
    2.8422  -16.2862  -25.0011 H   0  0  0  0  0  0  0  0  0  0  0  0
    2.6970  -14.6001  -24.4911 H   0  0  0  0  0  0  0  0  0  0  0  0
    0.1302  -15.2728  -23.6912 H   0  0  0  0  0  0  0  0  0  0  0  0
    0.7011  -16.5546  -24.7077 H   0  0  0  0  0  0  0  0  0  0  0  0
    2.3389  -17.0197  -22.5887 H   0  0  0  0  0  0  0  0  0  0  0  0
    3.6326  -15.7344  -21.0765 H   0  0  0  0  0  0  0  0  0  0  0  0
    2.0426  -13.7097  -19.6721 H   0  0  0  0  0  0  0  0  0  0  0  0
    3.2479  -14.6339  -18.0067 H   0  0  0  0  0  0  0  0  0  0  0  0
    4.3856  -13.3660  -18.4193 H   0  0  0  0  0  0  0  0  0  0  0  0
    6.5585  -13.8758  -19.2018 H   0  0  0  0  0  0  0  0  0  0  0  0
    3.5820  -16.9484  -18.7690 H   0  0  0  0  0  0  0  0  0  0  0  0
    8.3109  -15.5911  -19.4118 H   0  0  0  0  0  0  0  0  0  0  0  0
    5.3320  -18.6850  -18.9723 H   0  0  0  0  0  0  0  0  0  0  0  0
    8.7152  -17.8110  -19.4483 H   0  0  0  0  0  0  0  0  0  0  0  0
  1  9  2  0  0  0  0
  2  3  2  0  0  0  0
  2  4  1  0  0  0  0
  2 52  1  0  0  0  0
  3  5  1  0  0  0  0
  3 53  1  0  0  0  0
  4  6  2  0  0  0  0
  4 54  1  0  0  0  0
  5 10  2  0  0  0  0
  5 55  1  0  0  0  0
  6 10  1  0  0  0  0
  6 56  1  0  0  0  0
  7  8  1  0  0  0  0
  7 10  1  0  0  0  0
  7 57  1  0  0  0  0
  7 58  1  0  0  0  0
  8  9  1  0  0  0  0
  9 15  1  0  0  0  0
 12 11  2  1  0  0  0
 12 13  1  0  0  0  0
 12 14  1  0  0  0  0
 12 31  1  0  0  0  0
 14 15  1  0  0  0  0
 14 16  1  0  0  0  0
 14 59  1  6  0  0  0
 15 60  1  0  0  0  0
 16 17  1  0  0  0  0
 16 61  1  0  0  0  0
 16 62  1  0  0  0  0
 17 18  2  0  0  0  0
 17 22  1  0  0  0  0
 18 19  1  0  0  0  0
 18 63  1  0  0  0  0
 19 20  2  0  0  0  0
 19 64  1  0  0  0  0
 20 21  1  0  0  0  0
 20 65  1  0  0  0  0
 21 22  2  0  0  0  0
 21 66  1  0  0  0  0
 22 67  1  0  0  0  0
 23 34  2  0  0  0  0
 24 25  2  0  0  0  0
 24 26  1  0  0  0  0
 24 68  1  0  0  0  0
 25 27  1  0  0  0  0
 25 69  1  0  0  0  0
 26 28  2  0  0  0  0
 26 70  1  0  0  0  0
 27 36  2  0  0  0  0
 27 71  1  0  0  0  0
 28 36  1  0  0  0  0
 28 72  1  0  0  0  0
 29 35  2  0  0  0  0
 29 37  1  0  0  0  0
 29 73  1  0  0  0  0
 30 35  1  0  0  0  0
 30 38  1  0  0  0  0
 30 74  1  0  0  0  0
 30 75  1  0  0  0  0
 31 38  1  0  0  0  0
 31 76  1  0  0  0  0
 31 77  1  0  0  0  0
 32 33  1  0  0  0  0
 32 37  2  0  0  0  0
 33 35  1  0  0  0  0
 34 38  1  0  0  0  0
 34 39  1  0  0  0  0
 36 37  1  0  0  0  0
 38 78  1  1  0  0  0
 39 40  1  0  0  0  0
 39 79  1  0  0  0  0
 40 41  1  0  0  0  0
 40 43  1  0  0  0  0
 40 80  1  1  0  0  0
 41 42  2  0  0  0  0
 41 51  1  0  0  0  0
 43 44  1  0  0  0  0
 43 81  1  0  0  0  0
 43 82  1  0  0  0  0
 44 45  2  0  0  0  0
 44 46  1  0  0  0  0
 45 47  1  0  0  0  0
 45 83  1  0  0  0  0
 46 48  2  0  0  0  0
 46 84  1  0  0  0  0
 47 49  2  0  0  0  0
 47 85  1  0  0  0  0
 48 49  1  0  0  0  0
 48 86  1  0  0  0  0
 49 50  1  0  0  0  0
 50 87  1  0  0  0  0
M  END
$$$$
