3FH
 OpenBabel04111921183D

 15 15  0  0  0  0  0  0  0  0999 V2000
   14.7597    0.1982   16.9998 S   0  0  0  0  0  0  0  0  0  0  0  0
   15.5918    1.1895   15.8850 C   0  0  0  0  0  0  0  0  0  0  0  0
   15.5533    2.7025   15.9508 C   0  0  0  0  0  0  0  0  0  0  0  0
   14.7084    3.3320   16.9957 C   0  0  0  0  0  0  0  0  0  0  0  0
   14.8050    4.6966   16.9865 F   0  0  0  0  0  0  0  0  0  0  0  0
   13.3787    3.0773   16.8187 F   0  0  0  0  0  0  0  0  0  0  0  0
   15.0318    2.9688   18.2619 F   0  0  0  0  0  0  0  0  0  0  0  0
   16.2421    3.4416   15.0545 C   0  0  0  0  0  0  0  0  0  0  0  0
   17.0278    2.8133   14.0317 C   0  0  0  0  0  0  0  0  0  0  0  0
   17.0509    1.4734   13.9099 C   0  0  0  0  0  0  0  0  0  0  0  0
   16.3660    0.7015   14.8194 N   0  0  0  0  0  0  0  0  0  0  0  0
   16.5041   -0.6618   14.6127 O   0  0  0  0  0  0  0  0  0  0  0  0
   16.1804    4.5226   15.0889 H   0  0  0  0  0  0  0  0  0  0  0  0
   17.5945    3.4443   13.3480 H   0  0  0  0  0  0  0  0  0  0  0  0
   17.5958    0.9647   13.1227 H   0  0  0  0  0  0  0  0  0  0  0  0
  1  2  2  0  0  0  0
  2  3  1  0  0  0  0
  2 11  1  0  0  0  0
  3  4  1  0  0  0  0
  3  8  2  0  0  0  0
  4  5  1  0  0  0  0
  4  6  1  0  0  0  0
  4  7  1  0  0  0  0
  8  9  1  0  0  0  0
  8 13  1  0  0  0  0
  9 10  2  0  0  0  0
  9 14  1  0  0  0  0
 10 11  1  0  0  0  0
 10 15  1  0  0  0  0
 11 12  1  0  0  0  0
M  END
$$$$
