3FV
 OpenBabel04111922043D

 45 48  0  0  0  0  0  0  0  0999 V2000
   19.0189    2.8899   29.4369 C   0  0  0  0  0  0  0  0  0  0  0  0
   19.9261    3.5961   30.4260 C   0  0  0  0  0  0  0  0  0  0  0  0
   19.0819    4.2332   31.4820 N   0  3  0  0  0  0  0  0  0  0  0  0
   18.0854    5.2200   30.9638 C   0  0  0  0  0  0  0  0  0  0  0  0
   17.1878    4.5500   29.9354 C   0  0  0  0  0  0  0  0  0  0  0  0
   18.0310    3.8981   28.8328 C   0  0  0  0  0  0  0  0  0  0  0  0
   17.2093    3.3106   27.7854 N   0  3  0  0  0  0  0  0  0  0  0  0
   16.5550    2.1573   28.0058 N   0  0  0  0  0  0  0  0  0  0  0  0
   17.0522    3.8059   26.5319 C   0  0  0  0  0  0  0  0  0  0  0  0
   16.2754    2.8944   25.8615 C   0  0  0  0  0  0  0  0  0  0  0  0
   15.7842    3.0120   24.2446 Cl  0  0  0  0  0  0  0  0  0  0  0  0
   15.9898    1.8684   26.8028 C   0  0  0  0  0  0  0  0  0  0  0  0
   15.2031    0.6408   26.5788 C   0  0  0  0  0  0  0  0  0  0  0  0
   14.7881    0.3162   25.4718 O   0  0  0  0  0  0  0  0  0  0  0  0
   15.0088   -0.0823   27.7343 N   0  0  0  0  0  0  0  0  0  0  0  0
   14.2911   -1.2579   27.8347 C   0  0  0  0  0  0  0  0  0  0  0  0
   13.5553   -1.9814   26.8737 C   0  0  0  0  0  0  0  0  0  0  0  0
   13.0027   -3.0826   27.3895 N   0  0  0  0  0  0  0  0  0  0  0  0
   13.3882   -3.0582   28.6708 N   0  3  0  0  0  0  0  0  0  0  0  0
   14.1777   -1.9860   29.0091 C   0  0  0  0  0  0  0  0  0  0  0  0
   14.7540   -1.7695   30.3345 C   0  0  0  0  0  0  0  0  0  0  0  0
   15.4570   -0.6110   30.4513 N   0  0  0  0  0  0  0  0  0  0  0  0
   16.0618   -0.3700   31.6320 C   0  0  0  0  0  0  0  0  0  0  0  0
   16.0105   -1.2261   32.7150 C   0  0  0  0  0  0  0  0  0  0  0  0
   15.2782   -2.4003   32.5833 C   0  0  0  0  0  0  0  0  0  0  0  0
   14.6385   -2.6804   31.3784 C   0  0  0  0  0  0  0  0  0  0  0  0
   18.4792    2.0822   29.9495 H   0  0  0  0  0  0  0  0  0  0  0  0
   19.6186    2.4184   28.6500 H   0  0  0  0  0  0  0  0  0  0  0  0
   20.5116    4.3921   29.9523 H   0  0  0  0  0  0  0  0  0  0  0  0
   20.6031    2.9006   30.9294 H   0  0  0  0  0  0  0  0  0  0  0  0
   18.5951    3.5019   32.0215 H   0  0  0  0  0  0  0  0  0  0  0  0
   18.6519    6.0519   30.5313 H   0  0  0  0  0  0  0  0  0  0  0  0
   17.5167    5.5823   31.8249 H   0  0  0  0  0  0  0  0  0  0  0  0
   16.5062    5.2940   29.5057 H   0  0  0  0  0  0  0  0  0  0  0  0
   16.5582    3.7981   30.4296 H   0  0  0  0  0  0  0  0  0  0  0  0
   18.6160    4.6868   28.3391 H   0  0  0  0  0  0  0  0  0  0  0  0
   17.5000    4.7339   26.2051 H   0  0  0  0  0  0  0  0  0  0  0  0
   15.4345    0.2622   28.5946 H   0  0  0  0  0  0  0  0  0  0  0  0
   13.3965   -1.7560   25.8256 H   0  0  0  0  0  0  0  0  0  0  0  0
   13.0794   -3.8203   29.2621 H   0  0  0  0  0  0  0  0  0  0  0  0
   16.6149    0.5610   31.6817 H   0  0  0  0  0  0  0  0  0  0  0  0
   16.5272   -0.9940   33.6393 H   0  0  0  0  0  0  0  0  0  0  0  0
   15.2155   -3.1030   33.4114 H   0  0  0  0  0  0  0  0  0  0  0  0
   14.0796   -3.6036   31.2822 H   0  0  0  0  0  0  0  0  0  0  0  0
   19.6967    4.7026   32.1640 H   0  0  0  0  0  0  0  0  0  0  0  0
  1  2  1  0  0  0  0
  1  6  1  0  0  0  0
  1 27  1  0  0  0  0
  1 28  1  0  0  0  0
  2  3  1  0  0  0  0
  2 29  1  0  0  0  0
  2 30  1  0  0  0  0
  3  4  1  0  0  0  0
  3 31  1  0  0  0  0
  3 45  1  0  0  0  0
  4  5  1  0  0  0  0
  4 32  1  0  0  0  0
  4 33  1  0  0  0  0
  5  6  1  0  0  0  0
  5 34  1  0  0  0  0
  5 35  1  0  0  0  0
  6  7  1  0  0  0  0
  6 36  1  0  0  0  0
  7  8  1  0  0  0  0
  7  9  2  0  0  0  0
  8 12  1  0  0  0  0
  9 10  1  0  0  0  0
  9 37  1  0  0  0  0
 10 11  1  0  0  0  0
 10 12  2  0  0  0  0
 12 13  1  0  0  0  0
 13 14  2  0  0  0  0
 13 15  1  0  0  0  0
 15 16  1  0  0  0  0
 15 38  1  0  0  0  0
 16 17  2  0  0  0  0
 16 20  1  0  0  0  0
 17 18  1  0  0  0  0
 17 39  1  0  0  0  0
 18 19  1  0  0  0  0
 19 20  2  0  0  0  0
 19 40  1  0  0  0  0
 20 21  1  0  0  0  0
 21 22  2  0  0  0  0
 21 26  1  0  0  0  0
 22 23  1  0  0  0  0
 23 24  2  0  0  0  0
 23 41  1  0  0  0  0
 24 25  1  0  0  0  0
 24 42  1  0  0  0  0
 25 26  2  0  0  0  0
 25 43  1  0  0  0  0
 26 44  1  0  0  0  0
M  CHG  3   3   1   7   1  19   1
M  END
$$$$
