3J0
 OpenBabel04111921353D

 57 61  0  0  0  0  0  0  0  0999 V2000
    4.9305    8.3899    0.6216 C   0  0  0  0  0  0  0  0  0  0  0  0
    4.8979    9.7688    3.0420 C   0  0  0  0  0  0  0  0  0  0  0  0
    2.7285   10.8496    2.4623 C   0  0  0  0  0  0  0  0  0  0  0  0
   -1.1313   12.2866    1.7837 C   0  0  0  0  0  0  0  0  0  0  0  0
   -2.3498   11.8897    1.2358 C   0  0  0  0  0  0  0  0  0  0  0  0
   -2.4322   11.4034   -0.0744 C   0  0  0  0  0  0  0  0  0  0  0  0
   -0.0304   11.7709   -0.2921 C   0  0  0  0  0  0  0  0  0  0  0  0
   -4.1424   11.1519   -1.9884 C   0  0  0  0  0  0  0  0  0  0  0  0
    9.2444    3.9296   -0.9121 O   0  0  0  0  0  0  0  0  0  0  0  0
    8.1860    4.6340   -0.9897 C   0  0  0  0  0  0  0  0  0  0  0  0
    7.9468    5.6031    0.1075 C   0  0  0  0  0  0  0  0  0  0  0  0
    7.3198    4.5913   -1.9166 O   0  0  0  0  0  0  0  0  0  0  0  0
    8.7580    5.8051    1.2139 C   0  0  0  0  0  0  0  0  0  0  0  0
    8.1495    6.8192    1.9939 C   0  0  0  0  0  0  0  0  0  0  0  0
    7.0000    7.1932    1.3173 C   0  0  0  0  0  0  0  0  0  0  0  0
    6.8788    6.4583    0.1834 O   0  0  0  0  0  0  0  0  0  0  0  0
    5.9425    8.1547    1.5690 C   0  0  0  0  0  0  0  0  0  0  0  0
    3.9022    9.3003    0.8821 C   0  0  0  0  0  0  0  0  0  0  0  0
    3.8788    9.9759    2.1050 C   0  0  0  0  0  0  0  0  0  0  0  0
    5.9143    8.8564    2.7778 C   0  0  0  0  0  0  0  0  0  0  0  0
    2.4172   11.8118    1.5117 N   0  0  0  0  0  0  0  0  0  0  0  0
    1.9173   10.6436    3.9255 S   0  0  0  0  0  0  0  0  0  0  0  0
    1.3185   12.7572    1.6259 C   0  0  0  0  0  0  0  0  0  0  0  0
    0.0410   12.2413    1.0241 C   0  0  0  0  0  0  0  0  0  0  0  0
   -1.2536   11.3532   -0.8312 C   0  0  0  0  0  0  0  0  0  0  0  0
   -3.7110   11.0057   -0.6794 C   0  0  0  0  0  0  0  0  0  0  0  0
   -5.4738   10.6632   -2.0312 C   0  0  0  0  0  0  0  0  0  0  0  0
   -5.8794   10.2857   -0.8041 N   0  0  0  0  0  0  0  0  0  0  0  0
   -4.7960   10.4386   -0.0262 N   0  3  0  0  0  0  0  0  0  0  0  0
   -4.8819   10.0220    1.3165 C   0  0  0  0  0  0  0  0  0  0  0  0
   -4.1660    8.8986    1.7367 C   0  0  0  0  0  0  0  0  0  0  0  0
   -4.2604    8.4979    3.0708 C   0  0  0  0  0  0  0  0  0  0  0  0
   -5.0341    9.2424    3.9737 C   0  0  0  0  0  0  0  0  0  0  0  0
   -5.7320   10.3770    3.5395 C   0  0  0  0  0  0  0  0  0  0  0  0
   -5.6792   10.7572    2.1999 C   0  0  0  0  0  0  0  0  0  0  0  0
   -5.1731    8.8134    5.6437 Cl  0  0  0  0  0  0  0  0  0  0  0  0
   -3.4081    7.0706    3.5428 Cl  0  0  0  0  0  0  0  0  0  0  0  0
   -6.2920   10.6151   -3.2993 C   0  0  0  0  0  0  0  0  0  0  0  0
   -5.7360   11.0751   -4.3509 O   0  0  0  0  0  0  0  0  0  0  0  0
   -7.4654   10.1265   -3.2358 O   0  0  0  0  0  0  0  0  0  0  0  0
    4.9263    7.8375   -0.3191 H   0  0  0  0  0  0  0  0  0  0  0  0
    4.8937   10.2881    3.9963 H   0  0  0  0  0  0  0  0  0  0  0  0
   -1.1100   12.6395    2.8127 H   0  0  0  0  0  0  0  0  0  0  0  0
   -3.2296   11.9944    1.8606 H   0  0  0  0  0  0  0  0  0  0  0  0
    0.8590   11.7248   -0.9149 H   0  0  0  0  0  0  0  0  0  0  0  0
   -3.5921   11.5721   -2.8207 H   0  0  0  0  0  0  0  0  0  0  0  0
    9.6722    5.2687    1.4082 H   0  0  0  0  0  0  0  0  0  0  0  0
    8.5079    7.2286    2.9244 H   0  0  0  0  0  0  0  0  0  0  0  0
    3.1087    9.4282    0.1508 H   0  0  0  0  0  0  0  0  0  0  0  0
    6.6673    8.6786    3.5400 H   0  0  0  0  0  0  0  0  0  0  0  0
    2.9431   11.8338    0.6491 H   0  0  0  0  0  0  0  0  0  0  0  0
    1.6083   13.6940    1.1381 H   0  0  0  0  0  0  0  0  0  0  0  0
    1.1653   12.9960    2.6832 H   0  0  0  0  0  0  0  0  0  0  0  0
   -1.2793   10.9914   -1.8576 H   0  0  0  0  0  0  0  0  0  0  0  0
   -3.5769    8.3269    1.0232 H   0  0  0  0  0  0  0  0  0  0  0  0
   -6.3201   10.9658    4.2384 H   0  0  0  0  0  0  0  0  0  0  0  0
   -6.2155   11.6393    1.8535 H   0  0  0  0  0  0  0  0  0  0  0  0
  1 17  2  0  0  0  0
  1 18  1  0  0  0  0
  1 41  1  0  0  0  0
  2 19  1  0  0  0  0
  2 20  2  0  0  0  0
  2 42  1  0  0  0  0
  3 19  1  0  0  0  0
  3 21  1  0  0  0  0
  3 22  2  0  0  0  0
  4  5  2  0  0  0  0
  4 24  1  0  0  0  0
  4 43  1  0  0  0  0
  5  6  1  0  0  0  0
  5 44  1  0  0  0  0
  6 25  2  0  0  0  0
  6 26  1  0  0  0  0
  7 24  2  0  0  0  0
  7 25  1  0  0  0  0
  7 45  1  0  0  0  0
  8 26  1  0  0  0  0
  8 27  2  0  0  0  0
  8 46  1  0  0  0  0
  9 10  2  0  0  0  0
 10 11  1  0  0  0  0
 10 12  1  0  0  0  0
 11 13  2  0  0  0  0
 11 16  1  0  0  0  0
 13 14  1  0  0  0  0
 13 47  1  0  0  0  0
 14 15  2  0  0  0  0
 14 48  1  0  0  0  0
 15 16  1  0  0  0  0
 15 17  1  0  0  0  0
 17 20  1  0  0  0  0
 18 19  2  0  0  0  0
 18 49  1  0  0  0  0
 20 50  1  0  0  0  0
 21 23  1  0  0  0  0
 21 51  1  0  0  0  0
 23 24  1  0  0  0  0
 23 52  1  0  0  0  0
 23 53  1  0  0  0  0
 25 54  1  0  0  0  0
 26 29  2  0  0  0  0
 27 28  1  0  0  0  0
 27 38  1  0  0  0  0
 28 29  1  0  0  0  0
 29 30  1  0  0  0  0
 30 31  2  0  0  0  0
 30 35  1  0  0  0  0
 31 32  1  0  0  0  0
 31 55  1  0  0  0  0
 32 33  2  0  0  0  0
 32 37  1  0  0  0  0
 33 34  1  0  0  0  0
 33 36  1  0  0  0  0
 34 35  2  0  0  0  0
 34 56  1  0  0  0  0
 35 57  1  0  0  0  0
 38 39  2  0  0  0  0
 38 40  1  0  0  0  0
M  CHG  1  29   1
M  END
$$$$
