3J3
 OpenBabel04111921353D

 47 48  0  0  1  0  0  0  0  0999 V2000
   -1.9683    7.3855   81.9879 O   0  0  0  0  0  0  0  0  0  0  0  0
   -1.4416    8.7043   82.0058 C   0  0  2  0  0  0  0  0  0  0  0  0
   -0.9321    9.1546   80.6785 C   0  0  1  0  0  0  0  0  0  0  0  0
   -2.0460    9.6133   79.9088 O   0  0  0  0  0  0  0  0  0  0  0  0
    0.0961   10.2550   80.6575 C   0  0  1  0  0  0  0  0  0  0  0  0
   -0.2869   11.4335   79.9565 O   0  0  0  0  0  0  0  0  0  0  0  0
    0.9478   10.4331   81.8672 C   0  0  1  0  0  0  0  0  0  0  0  0
    1.2877   11.7993   82.3478 C   0  0  0  0  0  0  0  0  0  0  0  0
    2.4654   11.4551   83.1096 O   0  0  0  0  0  0  0  0  0  0  0  0
    0.7006    9.6751   83.0023 O   0  0  0  0  0  0  0  0  0  0  0  0
   -0.5125    8.9989   83.1234 C   0  0  2  0  0  0  0  0  0  0  0  0
   -0.3409    7.7469   84.3257 S   0  0  0  0  0  0  0  0  0  0  0  0
   -1.3792    8.2100   85.1889 O   0  0  0  0  0  0  0  0  0  0  0  0
    1.0235    7.7121   84.7731 O   0  0  0  0  0  0  0  0  0  0  0  0
   -0.7750    6.2109   83.9121 N   0  0  0  0  0  0  0  0  0  0  0  0
   -2.0770    5.7364   84.3316 C   0  0  0  0  0  0  0  0  0  0  0  0
   -2.1646    4.4822   85.1259 C   0  0  0  0  0  0  0  0  0  0  0  0
    0.2877    5.2672   83.7447 C   0  0  0  0  0  0  0  0  0  0  0  0
    0.2126    4.0297   84.5665 C   0  0  0  0  0  0  0  0  0  0  0  0
   -0.8675    3.9650   85.5857 C   0  0  2  0  0  0  0  0  0  0  0  0
   -0.6755    2.7460   86.2041 O   0  0  0  0  0  0  0  0  0  0  0  0
   -1.6959    1.6097   86.6996 S   0  0  0  0  0  0  0  0  0  0  0  0
   -1.4424    1.4094   88.1019 O   0  0  0  0  0  0  0  0  0  0  0  0
   -2.9770    1.7323   86.2569 O   0  0  0  0  0  0  0  0  0  0  0  0
   -1.0324    0.2907   85.9890 N   0  0  0  0  0  0  0  0  0  0  0  0
   -2.2539    7.2048   82.9057 H   0  0  0  0  0  0  0  0  0  0  0  0
   -2.3172    9.3281   82.1635 H   0  0  0  0  0  0  0  0  0  0  0  0
   -0.4778    8.2885   80.2069 H   0  0  0  0  0  0  0  0  0  0  0  0
   -2.6493    8.8634   79.7850 H   0  0  0  0  0  0  0  0  0  0  0  0
    0.8071    9.8363   79.9533 H   0  0  0  0  0  0  0  0  0  0  0  0
   -1.1081   11.7747   80.3491 H   0  0  0  0  0  0  0  0  0  0  0  0
    1.9380   10.1027   81.5162 H   0  0  0  0  0  0  0  0  0  0  0  0
    0.5074   12.2146   82.9913 H   0  0  0  0  0  0  0  0  0  0  0  0
    1.5327   12.4801   81.5314 H   0  0  0  0  0  0  0  0  0  0  0  0
    2.1649   10.7391   83.7427 H   0  0  0  0  0  0  0  0  0  0  0  0
   -1.1565    9.7024   83.6868 H   0  0  0  0  0  0  0  0  0  0  0  0
   -2.6226    5.5746   83.4083 H   0  0  0  0  0  0  0  0  0  0  0  0
   -2.5462    6.5331   84.9006 H   0  0  0  0  0  0  0  0  0  0  0  0
   -2.6692    3.7253   84.5453 H   0  0  0  0  0  0  0  0  0  0  0  0
   -2.7147    4.6959   86.0451 H   0  0  0  0  0  0  0  0  0  0  0  0
    1.2231    5.7549   83.9907 H   0  0  0  0  0  0  0  0  0  0  0  0
    0.2731    4.9925   82.7033 H   0  0  0  0  0  0  0  0  0  0  0  0
    1.1378    3.9379   85.1470 H   0  0  0  0  0  0  0  0  0  0  0  0
    0.1206    3.1729   83.9002 H   0  0  0  0  0  0  0  0  0  0  0  0
   -0.5868    4.6911   86.3181 H   0  0  0  0  0  0  0  0  0  0  0  0
   -1.4979   -0.5769   86.2182 H   0  0  0  0  0  0  0  0  0  0  0  0
   -0.2607    0.4266   85.3494 H   0  0  0  0  0  0  0  0  0  0  0  0
  1  2  1  0  0  0  0
  1 26  1  0  0  0  0
  2  3  1  0  0  0  0
  2 11  1  0  0  0  0
  2 27  1  1  0  0  0
  3  4  1  0  0  0  0
  3  5  1  0  0  0  0
  3 28  1  6  0  0  0
  4 29  1  0  0  0  0
  5  6  1  0  0  0  0
  5  7  1  0  0  0  0
  5 30  1  6  0  0  0
  6 31  1  0  0  0  0
  7  8  1  0  0  0  0
  7 10  1  0  0  0  0
  7 32  1  6  0  0  0
  8  9  1  0  0  0  0
  8 33  1  0  0  0  0
  8 34  1  0  0  0  0
  9 35  1  0  0  0  0
 10 11  1  0  0  0  0
 11 12  1  0  0  0  0
 11 36  1  1  0  0  0
 12 13  2  0  0  0  0
 12 14  2  0  0  0  0
 12 15  1  0  0  0  0
 15 16  1  0  0  0  0
 15 18  1  0  0  0  0
 16 17  1  0  0  0  0
 16 37  1  0  0  0  0
 16 38  1  0  0  0  0
 17 20  1  0  0  0  0
 17 39  1  0  0  0  0
 17 40  1  0  0  0  0
 18 19  1  0  0  0  0
 18 41  1  0  0  0  0
 18 42  1  0  0  0  0
 19 20  1  0  0  0  0
 19 43  1  0  0  0  0
 19 44  1  0  0  0  0
 20 21  1  0  0  0  0
 20 45  1  1  0  0  0
 21 22  1  0  0  0  0
 22 23  2  0  0  0  0
 22 24  2  0  0  0  0
 22 25  1  0  0  0  0
 25 46  1  0  0  0  0
 25 47  1  0  0  0  0
M  END
$$$$
