3JG
 OpenBabel04111922163D

 55 57  0  0  1  0  0  0  0  0999 V2000
   13.6570   52.6884   95.7083 C   0  0  0  0  0  0  0  0  0  0  0  0
   13.0768   52.6504   94.2917 C   0  0  0  0  0  0  0  0  0  0  0  0
   11.6520   52.0952   94.3942 C   0  0  0  0  0  0  0  0  0  0  0  0
   13.9357   51.7565   93.3948 C   0  0  0  0  0  0  0  0  0  0  0  0
   13.0732   54.0853   93.7487 C   0  0  0  0  0  0  0  0  0  0  0  0
   12.5809   54.1662   92.3056 C   0  0  0  0  0  0  0  0  0  0  0  0
   11.3870   53.9903   92.0557 O   0  0  0  0  0  0  0  0  0  0  0  0
   13.4978   54.4067   91.2983 N   0  0  0  0  0  0  0  0  0  0  0  0
   14.9296   54.6893   91.3955 C   0  0  0  0  0  0  0  0  0  0  0  0
   15.2125   55.5761   90.1821 C   0  0  2  0  0  0  0  0  0  0  0  0
   14.8602   56.9260   90.4895 O   0  0  0  0  0  0  0  0  0  0  0  0
   14.2788   55.0317   89.1191 C   0  0  0  0  0  0  0  0  0  0  0  0
   13.0370   54.5963   89.9188 C   0  0  1  0  0  0  0  0  0  0  0  0
   12.5227   53.2884   89.3275 C   0  0  0  0  0  0  0  0  0  0  0  0
   13.0331   52.2276   89.5970 O   0  0  0  0  0  0  0  0  0  0  0  0
   11.5426   53.4628   88.3697 N   0  0  0  0  0  0  0  0  0  0  0  0
   11.0560   52.3246   87.6344 C   0  0  0  0  0  0  0  0  0  0  0  0
   11.8594   52.0813   86.3830 C   0  0  0  0  0  0  0  0  0  0  0  0
   11.5712   50.9551   85.6161 C   0  0  0  0  0  0  0  0  0  0  0  0
   12.3173   50.6928   84.4852 C   0  0  0  0  0  0  0  0  0  0  0  0
   12.8776   52.9582   85.9981 C   0  0  0  0  0  0  0  0  0  0  0  0
   13.6327   52.6924   84.8776 C   0  0  0  0  0  0  0  0  0  0  0  0
   13.3735   51.5579   84.1408 C   0  0  0  0  0  0  0  0  0  0  0  0
   14.1121   51.3233   82.9494 C   0  0  0  0  0  0  0  0  0  0  0  0
   15.4533   51.6125   82.8787 O   0  0  0  0  0  0  0  0  0  0  0  0
   15.7605   51.2500   81.6107 C   0  0  0  0  0  0  0  0  0  0  0  0
   14.7447   50.7970   80.8891 N   0  0  0  0  0  0  0  0  0  0  0  0
   13.6927   50.8508   81.7432 C   0  0  0  0  0  0  0  0  0  0  0  0
   13.6904   51.6829   96.1391 H   0  0  0  0  0  0  0  0  0  0  0  0
   13.0340   53.3184   96.3555 H   0  0  0  0  0  0  0  0  0  0  0  0
   14.6702   53.1023   95.7046 H   0  0  0  0  0  0  0  0  0  0  0  0
   11.1773   52.0261   93.4134 H   0  0  0  0  0  0  0  0  0  0  0  0
   11.0309   52.7381   95.0293 H   0  0  0  0  0  0  0  0  0  0  0  0
   11.6557   51.0905   94.8285 H   0  0  0  0  0  0  0  0  0  0  0  0
   14.9553   52.1500   93.3117 H   0  0  0  0  0  0  0  0  0  0  0  0
   13.5151   51.6970   92.3853 H   0  0  0  0  0  0  0  0  0  0  0  0
   13.9911   50.7391   93.7911 H   0  0  0  0  0  0  0  0  0  0  0  0
   14.0738   54.5089   93.8492 H   0  0  0  0  0  0  0  0  0  0  0  0
   12.4192   54.7032   94.3804 H   0  0  0  0  0  0  0  0  0  0  0  0
   15.4893   53.7492   91.3138 H   0  0  0  0  0  0  0  0  0  0  0  0
   15.1826   55.1962   92.3252 H   0  0  0  0  0  0  0  0  0  0  0  0
   16.2597   55.5438   89.8726 H   0  0  0  0  0  0  0  0  0  0  0  0
   15.0363   57.4830   89.7128 H   0  0  0  0  0  0  0  0  0  0  0  0
   14.7568   54.1827   88.6059 H   0  0  0  0  0  0  0  0  0  0  0  0
   14.0168   55.7816   88.3685 H   0  0  0  0  0  0  0  0  0  0  0  0
   12.2332   55.3417   89.8701 H   0  0  0  0  0  0  0  0  0  0  0  0
   11.2240   54.3844   88.1109 H   0  0  0  0  0  0  0  0  0  0  0  0
   10.0180   52.5206   87.3437 H   0  0  0  0  0  0  0  0  0  0  0  0
   11.1058   51.4301   88.2576 H   0  0  0  0  0  0  0  0  0  0  0  0
   10.7775   50.2714   85.9137 H   0  0  0  0  0  0  0  0  0  0  0  0
   12.0950   49.8107   83.8889 H   0  0  0  0  0  0  0  0  0  0  0  0
   13.1245   53.8305   86.5814 H   0  0  0  0  0  0  0  0  0  0  0  0
   14.4282   53.3731   84.5798 H   0  0  0  0  0  0  0  0  0  0  0  0
   16.7876   51.3545   81.2696 H   0  0  0  0  0  0  0  0  0  0  0  0
   12.6632   50.5683   81.5191 H   0  0  0  0  0  0  0  0  0  0  0  0
  1  2  1  0  0  0  0
  1 29  1  0  0  0  0
  1 30  1  0  0  0  0
  1 31  1  0  0  0  0
  2  3  1  0  0  0  0
  2  4  1  0  0  0  0
  2  5  1  0  0  0  0
  3 32  1  0  0  0  0
  3 33  1  0  0  0  0
  3 34  1  0  0  0  0
  4 35  1  0  0  0  0
  4 36  1  0  0  0  0
  4 37  1  0  0  0  0
  5  6  1  0  0  0  0
  5 38  1  0  0  0  0
  5 39  1  0  0  0  0
  6  7  2  0  0  0  0
  6  8  1  0  0  0  0
  8  9  1  0  0  0  0
  8 13  1  0  0  0  0
  9 10  1  0  0  0  0
  9 40  1  0  0  0  0
  9 41  1  0  0  0  0
 10 11  1  0  0  0  0
 10 12  1  0  0  0  0
 10 42  1  6  0  0  0
 11 43  1  0  0  0  0
 12 13  1  0  0  0  0
 12 44  1  0  0  0  0
 12 45  1  0  0  0  0
 13 14  1  0  0  0  0
 13 46  1  6  0  0  0
 14 15  2  0  0  0  0
 14 16  1  0  0  0  0
 16 17  1  0  0  0  0
 16 47  1  0  0  0  0
 17 18  1  0  0  0  0
 17 48  1  0  0  0  0
 17 49  1  0  0  0  0
 18 19  2  0  0  0  0
 18 21  1  0  0  0  0
 19 20  1  0  0  0  0
 19 50  1  0  0  0  0
 20 23  2  0  0  0  0
 20 51  1  0  0  0  0
 21 22  2  0  0  0  0
 21 52  1  0  0  0  0
 22 23  1  0  0  0  0
 22 53  1  0  0  0  0
 23 24  1  0  0  0  0
 24 25  1  0  0  0  0
 24 28  2  0  0  0  0
 25 26  1  0  0  0  0
 26 27  2  0  0  0  0
 26 54  1  0  0  0  0
 27 28  1  0  0  0  0
 28 55  1  0  0  0  0
M  END
$$$$
