3JH
 OpenBabel04111922173D

 84 86  0  0  1  0  0  0  0  0999 V2000
    7.6068   55.7556   96.1902 C   0  0  0  0  0  0  0  0  0  0  0  0
    8.3273   57.0470   95.8038 C   0  0  0  0  0  0  0  0  0  0  0  0
    7.3097   58.0394   95.2809 C   0  0  0  0  0  0  0  0  0  0  0  0
    9.4049   56.8120   94.7404 C   0  0  0  0  0  0  0  0  0  0  0  0
   10.2990   55.6614   95.1628 C   0  0  2  0  0  0  0  0  0  0  0  0
   10.9165   55.9461   96.4573 N   0  0  0  0  0  0  0  0  0  0  0  0
   11.3463   55.0332   97.3745 C   0  0  0  0  0  0  0  0  0  0  0  0
   11.8759   55.3861   98.4213 O   0  0  0  0  0  0  0  0  0  0  0  0
   11.1188   53.5874   97.0623 C   0  0  0  0  0  0  0  0  0  0  0  0
   11.3890   55.4195   94.1198 C   0  0  0  0  0  0  0  0  0  0  0  0
   12.3368   56.1977   93.9480 O   0  0  0  0  0  0  0  0  0  0  0  0
   11.2810   54.2265   93.4873 N   0  0  0  0  0  0  0  0  0  0  0  0
   12.2882   53.7160   92.5487 C   0  0  1  0  0  0  0  0  0  0  0  0
   12.5358   52.2193   92.8626 C   0  0  0  0  0  0  0  0  0  0  0  0
   13.1926   52.1221   94.2404 C   0  0  0  0  0  0  0  0  0  0  0  0
   13.4854   51.5805   91.8597 C   0  0  0  0  0  0  0  0  0  0  0  0
   11.2287   51.4051   92.9000 C   0  0  0  0  0  0  0  0  0  0  0  0
   11.7906   53.9913   91.1116 C   0  0  0  0  0  0  0  0  0  0  0  0
   10.5906   53.8411   90.8379 O   0  0  0  0  0  0  0  0  0  0  0  0
   12.7138   54.3708   90.1522 N   0  0  0  0  0  0  0  0  0  0  0  0
   14.1226   54.6768   90.3409 C   0  0  0  0  0  0  0  0  0  0  0  0
   14.4601   55.6273   89.1982 C   0  0  2  0  0  0  0  0  0  0  0  0
   14.1484   56.9790   89.5317 O   0  0  0  0  0  0  0  0  0  0  0  0
   13.5406   55.2267   88.0638 C   0  0  0  0  0  0  0  0  0  0  0  0
   12.3022   54.6663   88.7794 C   0  0  1  0  0  0  0  0  0  0  0  0
   11.8551   53.3778   88.0920 C   0  0  0  0  0  0  0  0  0  0  0  0
   12.3750   52.3134   88.3279 O   0  0  0  0  0  0  0  0  0  0  0  0
   10.9007   53.5577   87.1223 N   0  0  0  0  0  0  0  0  0  0  0  0
   10.4754   52.4249   86.3419 C   0  0  0  0  0  0  0  0  0  0  0  0
   11.3343   52.2264   85.1289 C   0  0  0  0  0  0  0  0  0  0  0  0
   12.2250   53.2093   84.6708 C   0  0  0  0  0  0  0  0  0  0  0  0
   13.0313   52.9883   83.5883 C   0  0  0  0  0  0  0  0  0  0  0  0
   11.2306   51.0245   84.4444 C   0  0  0  0  0  0  0  0  0  0  0  0
   12.0338   50.7975   83.3422 C   0  0  0  0  0  0  0  0  0  0  0  0
   12.9485   51.7732   82.9006 C   0  0  0  0  0  0  0  0  0  0  0  0
   13.7407   51.5624   81.7099 C   0  0  0  0  0  0  0  0  0  0  0  0
   15.3538   52.1434   81.5693 S   0  0  0  0  0  0  0  0  0  0  0  0
   15.4239   51.5109   79.9811 C   0  0  0  0  0  0  0  0  0  0  0  0
   14.3347   50.9144   79.5601 N   0  0  0  0  0  0  0  0  0  0  0  0
   13.3548   50.9311   80.5436 C   0  0  0  0  0  0  0  0  0  0  0  0
   12.0192   50.3153   80.2756 C   0  0  0  0  0  0  0  0  0  0  0  0
    6.8618   55.9442   96.9647 H   0  0  0  0  0  0  0  0  0  0  0  0
    8.2931   55.0111   96.6006 H   0  0  0  0  0  0  0  0  0  0  0  0
    7.1120   55.3178   95.3170 H   0  0  0  0  0  0  0  0  0  0  0  0
    8.8070   57.4621   96.7008 H   0  0  0  0  0  0  0  0  0  0  0  0
    7.7958   58.9763   94.9986 H   0  0  0  0  0  0  0  0  0  0  0  0
    6.5583   58.2456   96.0479 H   0  0  0  0  0  0  0  0  0  0  0  0
    6.8041   57.6278   94.4007 H   0  0  0  0  0  0  0  0  0  0  0  0
   10.0021   57.7257   94.6056 H   0  0  0  0  0  0  0  0  0  0  0  0
    8.9393   56.5917   93.7692 H   0  0  0  0  0  0  0  0  0  0  0  0
    9.7058   54.7526   95.2465 H   0  0  0  0  0  0  0  0  0  0  0  0
   11.0716   56.9156   96.7031 H   0  0  0  0  0  0  0  0  0  0  0  0
   11.5318   52.9518   97.8440 H   0  0  0  0  0  0  0  0  0  0  0  0
   11.6234   53.3612   96.1433 H   0  0  0  0  0  0  0  0  0  0  0  0
   10.0613   53.3652   96.9305 H   0  0  0  0  0  0  0  0  0  0  0  0
   10.4462   53.6703   93.6257 H   0  0  0  0  0  0  0  0  0  0  0  0
   13.2112   54.2786   92.7119 H   0  0  0  0  0  0  0  0  0  0  0  0
   13.3689   51.0882   94.5408 H   0  0  0  0  0  0  0  0  0  0  0  0
   12.5372   52.5363   94.9812 H   0  0  0  0  0  0  0  0  0  0  0  0
   14.1267   52.6865   94.2910 H   0  0  0  0  0  0  0  0  0  0  0  0
   13.0649   51.6137   90.8525 H   0  0  0  0  0  0  0  0  0  0  0  0
   13.6626   50.5299   92.1137 H   0  0  0  0  0  0  0  0  0  0  0  0
   14.4500   52.0945   91.8563 H   0  0  0  0  0  0  0  0  0  0  0  0
   10.5111   51.8035   93.6243 H   0  0  0  0  0  0  0  0  0  0  0  0
   11.4228   50.3719   93.2027 H   0  0  0  0  0  0  0  0  0  0  0  0
   10.7478   51.3914   91.9188 H   0  0  0  0  0  0  0  0  0  0  0  0
   14.7039   53.7524   90.2566 H   0  0  0  0  0  0  0  0  0  0  0  0
   14.3091   55.1470   91.3070 H   0  0  0  0  0  0  0  0  0  0  0  0
   15.5097   55.5573   88.9051 H   0  0  0  0  0  0  0  0  0  0  0  0
   14.6704   57.2382   90.3095 H   0  0  0  0  0  0  0  0  0  0  0  0
   14.0389   54.4911   87.4205 H   0  0  0  0  0  0  0  0  0  0  0  0
   13.2713   56.0947   87.4527 H   0  0  0  0  0  0  0  0  0  0  0  0
   11.4635   55.3706   88.7580 H   0  0  0  0  0  0  0  0  0  0  0  0
   10.5480   54.4722   86.8875 H   0  0  0  0  0  0  0  0  0  0  0  0
    9.4403   52.5859   86.0224 H   0  0  0  0  0  0  0  0  0  0  0  0
   10.5270   51.5209   86.9581 H   0  0  0  0  0  0  0  0  0  0  0  0
   12.3222   54.1594   85.1897 H   0  0  0  0  0  0  0  0  0  0  0  0
   13.7215   53.7519   83.2353 H   0  0  0  0  0  0  0  0  0  0  0  0
   10.5401   50.2556   84.7868 H   0  0  0  0  0  0  0  0  0  0  0  0
   11.9443   49.8429   82.8493 H   0  0  0  0  0  0  0  0  0  0  0  0
   16.3044   51.5950   79.3587 H   0  0  0  0  0  0  0  0  0  0  0  0
   11.9852   49.8941   79.2679 H   0  0  0  0  0  0  0  0  0  0  0  0
   11.2061   51.0445   80.3748 H   0  0  0  0  0  0  0  0  0  0  0  0
   11.8119   49.4867   80.9563 H   0  0  0  0  0  0  0  0  0  0  0  0
  1  2  1  0  0  0  0
  1 42  1  0  0  0  0
  1 43  1  0  0  0  0
  1 44  1  0  0  0  0
  2  3  1  0  0  0  0
  2  4  1  0  0  0  0
  2 45  1  0  0  0  0
  3 46  1  0  0  0  0
  3 47  1  0  0  0  0
  3 48  1  0  0  0  0
  4  5  1  0  0  0  0
  4 49  1  0  0  0  0
  4 50  1  0  0  0  0
  5  6  1  0  0  0  0
  5 10  1  0  0  0  0
  5 51  1  1  0  0  0
  6  7  1  0  0  0  0
  6 52  1  0  0  0  0
  7  8  2  0  0  0  0
  7  9  1  0  0  0  0
  9 53  1  0  0  0  0
  9 54  1  0  0  0  0
  9 55  1  0  0  0  0
 10 11  2  0  0  0  0
 10 12  1  0  0  0  0
 12 13  1  0  0  0  0
 12 56  1  0  0  0  0
 13 14  1  0  0  0  0
 13 18  1  0  0  0  0
 13 57  1  1  0  0  0
 14 15  1  0  0  0  0
 14 16  1  0  0  0  0
 14 17  1  0  0  0  0
 15 58  1  0  0  0  0
 15 59  1  0  0  0  0
 15 60  1  0  0  0  0
 16 61  1  0  0  0  0
 16 62  1  0  0  0  0
 16 63  1  0  0  0  0
 17 64  1  0  0  0  0
 17 65  1  0  0  0  0
 17 66  1  0  0  0  0
 18 19  2  0  0  0  0
 18 20  1  0  0  0  0
 20 21  1  0  0  0  0
 20 25  1  0  0  0  0
 21 22  1  0  0  0  0
 21 67  1  0  0  0  0
 21 68  1  0  0  0  0
 22 23  1  0  0  0  0
 22 24  1  0  0  0  0
 22 69  1  6  0  0  0
 23 70  1  0  0  0  0
 24 25  1  0  0  0  0
 24 71  1  0  0  0  0
 24 72  1  0  0  0  0
 25 26  1  0  0  0  0
 25 73  1  6  0  0  0
 26 27  2  0  0  0  0
 26 28  1  0  0  0  0
 28 29  1  0  0  0  0
 28 74  1  0  0  0  0
 29 30  1  0  0  0  0
 29 75  1  0  0  0  0
 29 76  1  0  0  0  0
 30 31  2  0  0  0  0
 30 33  1  0  0  0  0
 31 32  1  0  0  0  0
 31 77  1  0  0  0  0
 32 35  2  0  0  0  0
 32 78  1  0  0  0  0
 33 34  2  0  0  0  0
 33 79  1  0  0  0  0
 34 35  1  0  0  0  0
 34 80  1  0  0  0  0
 35 36  1  0  0  0  0
 36 37  1  0  0  0  0
 36 40  2  0  0  0  0
 37 38  1  0  0  0  0
 38 39  2  0  0  0  0
 38 81  1  0  0  0  0
 39 40  1  0  0  0  0
 40 41  1  0  0  0  0
 41 82  1  0  0  0  0
 41 83  1  0  0  0  0
 41 84  1  0  0  0  0
M  END
$$$$
