3JQ
 OpenBabel04111922183D

 71 74  0  0  1  0  0  0  0  0999 V2000
    7.4886    1.0999   11.3823 C   0  0  0  0  0  0  0  0  0  0  0  0
    8.2856   -0.0727   11.4788 O   0  0  0  0  0  0  0  0  0  0  0  0
    9.3999    0.0242   12.2788 C   0  0  0  0  0  0  0  0  0  0  0  0
    9.7942    1.1968   12.9235 C   0  0  0  0  0  0  0  0  0  0  0  0
   10.1587   -1.1459   12.4362 C   0  0  0  0  0  0  0  0  0  0  0  0
    9.6834   -2.2400   11.7623 O   0  0  0  0  0  0  0  0  0  0  0  0
   10.3852   -3.4598   11.9231 C   0  0  0  0  0  0  0  0  0  0  0  0
   11.2992   -1.1241   13.2374 C   0  0  0  0  0  0  0  0  0  0  0  0
   11.6818    0.0565   13.8863 C   0  0  0  0  0  0  0  0  0  0  0  0
   10.9269    1.2206   13.7338 C   0  0  0  0  0  0  0  0  0  0  0  0
   11.1874    2.4344   14.3192 O   0  0  0  0  0  0  0  0  0  0  0  0
   12.2303    2.4886   15.2959 C   0  0  0  0  0  0  0  0  0  0  0  0
   13.6198    2.6248   14.6757 C   0  0  0  0  0  0  0  0  0  0  0  0
   13.8169    3.8986   13.9795 N   0  0  0  0  0  0  0  0  0  0  0  0
   13.7610    3.8837   12.5986 C   0  0  0  0  0  0  0  0  0  0  0  0
   13.5410    2.8299   11.9953 O   0  0  0  0  0  0  0  0  0  0  0  0
   14.0847    5.0768   14.7942 C   0  0  0  0  0  0  0  0  0  0  0  0
   15.5019    5.5942   14.5364 C   0  0  2  0  0  0  0  0  0  0  0  0
   16.0455    6.4188   15.7114 C   0  0  1  0  0  0  0  0  0  0  0  0
   15.1165    7.4718   15.9862 O   0  0  0  0  0  0  0  0  0  0  0  0
   16.2146    5.5551   16.9544 C   0  0  0  0  0  0  0  0  0  0  0  0
   16.9772    6.2682   17.9169 O   0  0  0  0  0  0  0  0  0  0  0  0
   15.5460    6.4589   13.2645 C   0  0  1  0  0  0  0  0  0  0  0  0
   16.7328    6.1144   12.3650 C   0  0  0  0  0  0  0  0  0  0  0  0
   16.5557    4.7966   11.6365 C   0  0  0  0  0  0  0  0  0  0  0  0
   15.2483    4.8172   10.8562 C   0  0  0  0  0  0  0  0  0  0  0  0
   14.0494    5.1149   11.7689 C   0  0  2  0  0  0  0  0  0  0  0  0
   14.2874    6.3666   12.4996 N   0  0  0  0  0  0  0  0  0  0  0  0
   13.5990    7.7645   11.8923 S   0  0  0  0  0  0  0  0  0  0  0  0
   12.6259    7.4244   10.9023 O   0  0  0  0  0  0  0  0  0  0  0  0
   14.6866    8.6956   11.6140 O   0  0  0  0  0  0  0  0  0  0  0  0
   12.7168    8.3584   13.3146 C   0  0  0  0  0  0  0  0  0  0  0  0
   11.4756    7.7877   13.6048 C   0  0  0  0  0  0  0  0  0  0  0  0
   10.7574    8.2441   14.7042 C   0  0  0  0  0  0  0  0  0  0  0  0
    9.2433    7.5324   15.0830 Cl  0  0  0  0  0  0  0  0  0  0  0  0
   11.2537    9.2703   15.5024 C   0  0  0  0  0  0  0  0  0  0  0  0
   12.4894    9.8316   15.1959 C   0  0  0  0  0  0  0  0  0  0  0  0
   13.1076   11.0942   16.1849 Cl  0  0  0  0  0  0  0  0  0  0  0  0
   13.2296    9.3889   14.0999 C   0  0  0  0  0  0  0  0  0  0  0  0
    6.6343    0.8850   10.7344 H   0  0  0  0  0  0  0  0  0  0  0  0
    8.0587    1.9183   10.9328 H   0  0  0  0  0  0  0  0  0  0  0  0
    7.1052    1.3865   12.3674 H   0  0  0  0  0  0  0  0  0  0  0  0
    9.2180    2.1075   12.8106 H   0  0  0  0  0  0  0  0  0  0  0  0
    9.8782   -4.2170   11.3158 H   0  0  0  0  0  0  0  0  0  0  0  0
   10.3616   -3.7860   12.9671 H   0  0  0  0  0  0  0  0  0  0  0  0
   11.4142   -3.3678   11.5638 H   0  0  0  0  0  0  0  0  0  0  0  0
   11.9158   -2.0105   13.3718 H   0  0  0  0  0  0  0  0  0  0  0  0
   12.5795    0.0383   14.4931 H   0  0  0  0  0  0  0  0  0  0  0  0
   12.1953    1.6154   15.9560 H   0  0  0  0  0  0  0  0  0  0  0  0
   12.0342    3.3641   15.9247 H   0  0  0  0  0  0  0  0  0  0  0  0
   13.7954    1.7991   13.9837 H   0  0  0  0  0  0  0  0  0  0  0  0
   14.3828    2.5542   15.4583 H   0  0  0  0  0  0  0  0  0  0  0  0
   13.9421    4.7947   15.8407 H   0  0  0  0  0  0  0  0  0  0  0  0
   13.3247    5.8356   14.5873 H   0  0  0  0  0  0  0  0  0  0  0  0
   16.1647    4.7271   14.4218 H   0  0  0  0  0  0  0  0  0  0  0  0
   17.0160    6.8714   15.4621 H   0  0  0  0  0  0  0  0  0  0  0  0
   15.4534    8.0178   16.7151 H   0  0  0  0  0  0  0  0  0  0  0  0
   16.7440    4.6282   16.7092 H   0  0  0  0  0  0  0  0  0  0  0  0
   15.2460    5.3111   17.3994 H   0  0  0  0  0  0  0  0  0  0  0  0
   16.5043    7.0875   18.1311 H   0  0  0  0  0  0  0  0  0  0  0  0
   15.6856    7.5027   13.5649 H   0  0  0  0  0  0  0  0  0  0  0  0
   17.6515    6.0697   12.9548 H   0  0  0  0  0  0  0  0  0  0  0  0
   16.8494    6.8996   11.6092 H   0  0  0  0  0  0  0  0  0  0  0  0
   16.5588    3.9721   12.3576 H   0  0  0  0  0  0  0  0  0  0  0  0
   17.4012    4.6438   10.9578 H   0  0  0  0  0  0  0  0  0  0  0  0
   15.1317    3.8504   10.3526 H   0  0  0  0  0  0  0  0  0  0  0  0
   15.3079    5.5899   10.0798 H   0  0  0  0  0  0  0  0  0  0  0  0
   13.1564    5.2062   11.1482 H   0  0  0  0  0  0  0  0  0  0  0  0
   11.0804    6.9887   12.9810 H   0  0  0  0  0  0  0  0  0  0  0  0
   10.6778    9.6298   16.3511 H   0  0  0  0  0  0  0  0  0  0  0  0
   14.2004    9.8175   13.8855 H   0  0  0  0  0  0  0  0  0  0  0  0
  1  2  1  0  0  0  0
  1 40  1  0  0  0  0
  1 41  1  0  0  0  0
  1 42  1  0  0  0  0
  2  3  1  0  0  0  0
  3  4  2  0  0  0  0
  3  5  1  0  0  0  0
  4 10  1  0  0  0  0
  4 43  1  0  0  0  0
  5  6  1  0  0  0  0
  5  8  2  0  0  0  0
  6  7  1  0  0  0  0
  7 44  1  0  0  0  0
  7 45  1  0  0  0  0
  7 46  1  0  0  0  0
  8  9  1  0  0  0  0
  8 47  1  0  0  0  0
  9 10  2  0  0  0  0
  9 48  1  0  0  0  0
 10 11  1  0  0  0  0
 11 12  1  0  0  0  0
 12 13  1  0  0  0  0
 12 49  1  0  0  0  0
 12 50  1  0  0  0  0
 13 14  1  0  0  0  0
 13 51  1  0  0  0  0
 13 52  1  0  0  0  0
 14 15  1  0  0  0  0
 14 17  1  0  0  0  0
 15 16  2  0  0  0  0
 15 27  1  0  0  0  0
 17 18  1  0  0  0  0
 17 53  1  0  0  0  0
 17 54  1  0  0  0  0
 18 19  1  0  0  0  0
 18 23  1  0  0  0  0
 18 55  1  6  0  0  0
 19 20  1  0  0  0  0
 19 21  1  0  0  0  0
 19 56  1  6  0  0  0
 20 57  1  0  0  0  0
 21 22  1  0  0  0  0
 21 58  1  0  0  0  0
 21 59  1  0  0  0  0
 22 60  1  0  0  0  0
 23 24  1  0  0  0  0
 23 28  1  0  0  0  0
 23 61  1  1  0  0  0
 24 25  1  0  0  0  0
 24 62  1  0  0  0  0
 24 63  1  0  0  0  0
 25 26  1  0  0  0  0
 25 64  1  0  0  0  0
 25 65  1  0  0  0  0
 26 27  1  0  0  0  0
 26 66  1  0  0  0  0
 26 67  1  0  0  0  0
 27 28  1  0  0  0  0
 27 68  1  6  0  0  0
 28 29  1  0  0  0  0
 29 30  2  0  0  0  0
 29 31  2  0  0  0  0
 29 32  1  0  0  0  0
 32 33  2  0  0  0  0
 32 39  1  0  0  0  0
 33 34  1  0  0  0  0
 33 69  1  0  0  0  0
 34 35  1  0  0  0  0
 34 36  2  0  0  0  0
 36 37  1  0  0  0  0
 36 70  1  0  0  0  0
 37 38  1  0  0  0  0
 37 39  2  0  0  0  0
 39 71  1  0  0  0  0
M  END
$$$$
