3JR
 OpenBabel04111922183D

 71 74  0  0  1  0  0  0  0  0999 V2000
   28.9636    1.5301  -11.4226 C   0  0  0  0  0  0  0  0  0  0  0  0
   28.1728    0.3561  -11.5308 O   0  0  0  0  0  0  0  0  0  0  0  0
   27.0571    0.4213  -12.3284 C   0  0  0  0  0  0  0  0  0  0  0  0
   26.6270    1.5784  -12.9904 C   0  0  0  0  0  0  0  0  0  0  0  0
   26.3277   -0.7733  -12.4695 C   0  0  0  0  0  0  0  0  0  0  0  0
   26.8028   -1.8611  -11.7809 O   0  0  0  0  0  0  0  0  0  0  0  0
   26.0973   -3.0869  -11.9103 C   0  0  0  0  0  0  0  0  0  0  0  0
   25.1917   -0.7847  -13.2829 C   0  0  0  0  0  0  0  0  0  0  0  0
   24.7850    0.3755  -13.9567 C   0  0  0  0  0  0  0  0  0  0  0  0
   25.4991    1.5623  -13.8158 C   0  0  0  0  0  0  0  0  0  0  0  0
   25.2121    2.7664  -14.3978 O   0  0  0  0  0  0  0  0  0  0  0  0
   24.1645    2.8413  -15.3658 C   0  0  0  0  0  0  0  0  0  0  0  0
   22.7697    2.9359  -14.7311 C   0  0  0  0  0  0  0  0  0  0  0  0
   22.5257    4.2017  -14.0301 N   0  0  0  0  0  0  0  0  0  0  0  0
   22.6440    4.1891  -12.6442 C   0  0  0  0  0  0  0  0  0  0  0  0
   22.9200    3.1443  -12.0415 O   0  0  0  0  0  0  0  0  0  0  0  0
   22.2701    5.3834  -14.8521 C   0  0  0  0  0  0  0  0  0  0  0  0
   20.8821    5.9901  -14.5863 C   0  0  2  0  0  0  0  0  0  0  0  0
   20.3798    6.8603  -15.7639 C   0  0  2  0  0  0  0  0  0  0  0  0
   19.9588    6.0198  -16.8369 O   0  0  0  0  0  0  0  0  0  0  0  0
   21.4195    7.8861  -16.2484 C   0  0  0  0  0  0  0  0  0  0  0  0
   20.8014    9.0338  -16.8140 O   0  0  0  0  0  0  0  0  0  0  0  0
   20.8597    6.8353  -13.2877 C   0  0  1  0  0  0  0  0  0  0  0  0
   19.6669    6.4786  -12.3881 C   0  0  0  0  0  0  0  0  0  0  0  0
   19.8494    5.1409  -11.6794 C   0  0  0  0  0  0  0  0  0  0  0  0
   21.1565    5.1541  -10.8938 C   0  0  0  0  0  0  0  0  0  0  0  0
   22.3528    5.4399  -11.8148 C   0  0  2  0  0  0  0  0  0  0  0  0
   22.1358    6.7176  -12.5363 N   0  0  0  0  0  0  0  0  0  0  0  0
   22.8550    8.1158  -11.9055 S   0  0  0  0  0  0  0  0  0  0  0  0
   23.8274    7.7657  -10.8961 O   0  0  0  0  0  0  0  0  0  0  0  0
   21.8015    9.0838  -11.6466 O   0  0  0  0  0  0  0  0  0  0  0  0
   23.7884    8.7037  -13.3023 C   0  0  0  0  0  0  0  0  0  0  0  0
   24.9345    8.0030  -13.6947 C   0  0  0  0  0  0  0  0  0  0  0  0
   25.6814    8.4704  -14.7749 C   0  0  0  0  0  0  0  0  0  0  0  0
   27.0785    7.6044  -15.2814 Cl  0  0  0  0  0  0  0  0  0  0  0  0
   25.3038    9.6277  -15.4541 C   0  0  0  0  0  0  0  0  0  0  0  0
   24.1640   10.3197  -15.0468 C   0  0  0  0  0  0  0  0  0  0  0  0
   23.6808   11.7367  -15.8934 Cl  0  0  0  0  0  0  0  0  0  0  0  0
   23.4019    9.8698  -13.9687 C   0  0  0  0  0  0  0  0  0  0  0  0
   29.8187    1.3000  -10.7800 H   0  0  0  0  0  0  0  0  0  0  0  0
   28.3998    2.3395  -10.9476 H   0  0  0  0  0  0  0  0  0  0  0  0
   29.3565    1.8384  -12.3977 H   0  0  0  0  0  0  0  0  0  0  0  0
   27.1542    2.5195  -12.8808 H   0  0  0  0  0  0  0  0  0  0  0  0
   26.6138   -3.8383  -11.3047 H   0  0  0  0  0  0  0  0  0  0  0  0
   26.1042   -3.4358  -12.9479 H   0  0  0  0  0  0  0  0  0  0  0  0
   25.0749   -2.9992  -11.5279 H   0  0  0  0  0  0  0  0  0  0  0  0
   24.5949   -1.6802  -13.4113 H   0  0  0  0  0  0  0  0  0  0  0  0
   23.8918    0.3107  -14.5668 H   0  0  0  0  0  0  0  0  0  0  0  0
   24.2217    2.0081  -16.0760 H   0  0  0  0  0  0  0  0  0  0  0  0
   24.3572    3.7489  -15.9508 H   0  0  0  0  0  0  0  0  0  0  0  0
   22.6253    2.1083  -14.0325 H   0  0  0  0  0  0  0  0  0  0  0  0
   21.9930    2.8330  -15.4984 H   0  0  0  0  0  0  0  0  0  0  0  0
   22.3585    5.0888  -15.9030 H   0  0  0  0  0  0  0  0  0  0  0  0
   23.0779    6.0995  -14.6830 H   0  0  0  0  0  0  0  0  0  0  0  0
   20.1790    5.1524  -14.5024 H   0  0  0  0  0  0  0  0  0  0  0  0
   19.4737    7.3902  -15.4482 H   0  0  0  0  0  0  0  0  0  0  0  0
   20.7216    5.5452  -17.2051 H   0  0  0  0  0  0  0  0  0  0  0  0
   22.0784    7.4599  -17.0106 H   0  0  0  0  0  0  0  0  0  0  0  0
   22.0346    8.2312  -15.4245 H   0  0  0  0  0  0  0  0  0  0  0  0
   20.2106    9.4290  -16.1480 H   0  0  0  0  0  0  0  0  0  0  0  0
   20.7238    7.8849  -13.5674 H   0  0  0  0  0  0  0  0  0  0  0  0
   18.7393    6.4668  -12.9725 H   0  0  0  0  0  0  0  0  0  0  0  0
   19.5480    7.2588  -11.6261 H   0  0  0  0  0  0  0  0  0  0  0  0
   19.8529    4.3189  -12.4047 H   0  0  0  0  0  0  0  0  0  0  0  0
   19.0073    4.9560  -11.0042 H   0  0  0  0  0  0  0  0  0  0  0  0
   21.2773    4.1926  -10.3818 H   0  0  0  0  0  0  0  0  0  0  0  0
   21.1028    5.9229  -10.1123 H   0  0  0  0  0  0  0  0  0  0  0  0
   23.2460    5.5258  -11.1861 H   0  0  0  0  0  0  0  0  0  0  0  0
   25.2423    7.1031  -13.1650 H   0  0  0  0  0  0  0  0  0  0  0  0
   25.8947    9.9906  -16.2922 H   0  0  0  0  0  0  0  0  0  0  0  0
   22.5079   10.4123  -13.6705 H   0  0  0  0  0  0  0  0  0  0  0  0
  1  2  1  0  0  0  0
  1 40  1  0  0  0  0
  1 41  1  0  0  0  0
  1 42  1  0  0  0  0
  2  3  1  0  0  0  0
  3  4  2  0  0  0  0
  3  5  1  0  0  0  0
  4 10  1  0  0  0  0
  4 43  1  0  0  0  0
  5  6  1  0  0  0  0
  5  8  2  0  0  0  0
  6  7  1  0  0  0  0
  7 44  1  0  0  0  0
  7 45  1  0  0  0  0
  7 46  1  0  0  0  0
  8  9  1  0  0  0  0
  8 47  1  0  0  0  0
  9 10  2  0  0  0  0
  9 48  1  0  0  0  0
 10 11  1  0  0  0  0
 11 12  1  0  0  0  0
 12 13  1  0  0  0  0
 12 49  1  0  0  0  0
 12 50  1  0  0  0  0
 13 14  1  0  0  0  0
 13 51  1  0  0  0  0
 13 52  1  0  0  0  0
 14 15  1  0  0  0  0
 14 17  1  0  0  0  0
 15 16  2  0  0  0  0
 15 27  1  0  0  0  0
 17 18  1  0  0  0  0
 17 53  1  0  0  0  0
 17 54  1  0  0  0  0
 18 19  1  0  0  0  0
 18 23  1  0  0  0  0
 18 55  1  1  0  0  0
 19 20  1  0  0  0  0
 19 21  1  0  0  0  0
 19 56  1  1  0  0  0
 20 57  1  0  0  0  0
 21 22  1  0  0  0  0
 21 58  1  0  0  0  0
 21 59  1  0  0  0  0
 22 60  1  0  0  0  0
 23 24  1  0  0  0  0
 23 28  1  0  0  0  0
 23 61  1  6  0  0  0
 24 25  1  0  0  0  0
 24 62  1  0  0  0  0
 24 63  1  0  0  0  0
 25 26  1  0  0  0  0
 25 64  1  0  0  0  0
 25 65  1  0  0  0  0
 26 27  1  0  0  0  0
 26 66  1  0  0  0  0
 26 67  1  0  0  0  0
 27 28  1  0  0  0  0
 27 68  1  1  0  0  0
 28 29  1  0  0  0  0
 29 30  2  0  0  0  0
 29 31  2  0  0  0  0
 29 32  1  0  0  0  0
 32 33  2  0  0  0  0
 32 39  1  0  0  0  0
 33 34  1  0  0  0  0
 33 69  1  0  0  0  0
 34 35  1  0  0  0  0
 34 36  2  0  0  0  0
 36 37  1  0  0  0  0
 36 70  1  0  0  0  0
 37 38  1  0  0  0  0
 37 39  2  0  0  0  0
 39 71  1  0  0  0  0
M  END
$$$$
