3JU
 OpenBabel04111922163D

 58 60  0  0  1  0  0  0  0  0999 V2000
   -5.7074   33.6860   -4.1343 C   0  0  0  0  0  0  0  0  0  0  0  0
   -5.6575   34.2895   -2.7181 C   0  0  0  0  0  0  0  0  0  0  0  0
   -5.1170   35.7237   -2.8294 C   0  0  0  0  0  0  0  0  0  0  0  0
   -4.7242   33.4332   -1.8469 C   0  0  0  0  0  0  0  0  0  0  0  0
   -7.0887   34.2823   -2.1456 C   0  0  0  0  0  0  0  0  0  0  0  0
   -7.1782   34.7263   -0.6980 C   0  0  0  0  0  0  0  0  0  0  0  0
   -7.0318   35.9129   -0.3895 O   0  0  0  0  0  0  0  0  0  0  0  0
   -7.3927   33.7631    0.2621 N   0  0  0  0  0  0  0  0  0  0  0  0
   -7.7359   32.3641    0.0831 C   0  0  0  0  0  0  0  0  0  0  0  0
   -8.5602   32.0167    1.3195 C   0  0  2  0  0  0  0  0  0  0  0  0
   -9.9253   32.3830    1.0988 O   0  0  0  0  0  0  0  0  0  0  0  0
   -7.9639   32.8981    2.4040 C   0  0  0  0  0  0  0  0  0  0  0  0
   -7.5604   34.1701    1.6508 C   0  0  1  0  0  0  0  0  0  0  0  0
   -6.2665   34.7128    2.2711 C   0  0  0  0  0  0  0  0  0  0  0  0
   -5.1516   34.2721    2.0045 O   0  0  0  0  0  0  0  0  0  0  0  0
   -6.5063   35.6489    3.2565 N   0  0  0  0  0  0  0  0  0  0  0  0
   -5.4458   36.1250    4.1010 C   0  0  0  0  0  0  0  0  0  0  0  0
   -5.2617   35.2528    5.3199 C   0  0  0  0  0  0  0  0  0  0  0  0
   -4.0363   35.3125    5.9882 C   0  0  0  0  0  0  0  0  0  0  0  0
   -3.8096   34.5017    7.0921 C   0  0  0  0  0  0  0  0  0  0  0  0
   -6.2657   34.4080    5.8064 C   0  0  0  0  0  0  0  0  0  0  0  0
   -6.0420   33.6076    6.9209 C   0  0  0  0  0  0  0  0  0  0  0  0
   -4.8074   33.6442    7.5753 C   0  0  0  0  0  0  0  0  0  0  0  0
   -4.5664   32.8523    8.7770 C   0  0  0  0  0  0  0  0  0  0  0  0
   -5.0092   31.1936    8.8481 S   0  0  0  0  0  0  0  0  0  0  0  0
   -4.4042   31.1140   10.4453 C   0  0  0  0  0  0  0  0  0  0  0  0
   -3.8900   32.2292   10.9260 N   0  0  0  0  0  0  0  0  0  0  0  0
   -3.9835   33.2316    9.9770 C   0  0  0  0  0  0  0  0  0  0  0  0
   -3.4853   34.5933   10.3238 C   0  0  0  0  0  0  0  0  0  0  0  0
   -4.7137   33.6707   -4.5943 H   0  0  0  0  0  0  0  0  0  0  0  0
   -6.3695   34.2689   -4.7852 H   0  0  0  0  0  0  0  0  0  0  0  0
   -6.0829   32.6565   -4.1145 H   0  0  0  0  0  0  0  0  0  0  0  0
   -5.0259   36.2071   -1.8526 H   0  0  0  0  0  0  0  0  0  0  0  0
   -5.7780   36.3411   -3.4489 H   0  0  0  0  0  0  0  0  0  0  0  0
   -4.1228   35.7365   -3.2895 H   0  0  0  0  0  0  0  0  0  0  0  0
   -5.1026   32.4081   -1.7605 H   0  0  0  0  0  0  0  0  0  0  0  0
   -4.6293   33.8400   -0.8348 H   0  0  0  0  0  0  0  0  0  0  0  0
   -3.7166   33.3811   -2.2724 H   0  0  0  0  0  0  0  0  0  0  0  0
   -7.5148   33.2871   -2.2783 H   0  0  0  0  0  0  0  0  0  0  0  0
   -7.7441   34.9513   -2.7232 H   0  0  0  0  0  0  0  0  0  0  0  0
   -6.8024   31.7950    0.0572 H   0  0  0  0  0  0  0  0  0  0  0  0
   -8.3049   32.1981   -0.8326 H   0  0  0  0  0  0  0  0  0  0  0  0
   -8.5260   30.9490    1.5562 H   0  0  0  0  0  0  0  0  0  0  0  0
  -10.4293   32.1412    1.8917 H   0  0  0  0  0  0  0  0  0  0  0  0
   -7.0879   32.4020    2.8395 H   0  0  0  0  0  0  0  0  0  0  0  0
   -8.6660   33.1245    3.2126 H   0  0  0  0  0  0  0  0  0  0  0  0
   -8.3511   34.9295    1.6918 H   0  0  0  0  0  0  0  0  0  0  0  0
   -7.4547   35.8756    3.5163 H   0  0  0  0  0  0  0  0  0  0  0  0
   -5.6978   37.1405    4.4145 H   0  0  0  0  0  0  0  0  0  0  0  0
   -4.5136   36.1513    3.5213 H   0  0  0  0  0  0  0  0  0  0  0  0
   -3.2443   35.9733    5.6418 H   0  0  0  0  0  0  0  0  0  0  0  0
   -2.8315   34.5446    7.5622 H   0  0  0  0  0  0  0  0  0  0  0  0
   -7.2350   34.3493    5.3214 H   0  0  0  0  0  0  0  0  0  0  0  0
   -6.8430   32.9642    7.2771 H   0  0  0  0  0  0  0  0  0  0  0  0
   -4.4456   30.2032   11.0122 H   0  0  0  0  0  0  0  0  0  0  0  0
   -3.0982   34.6281   11.3433 H   0  0  0  0  0  0  0  0  0  0  0  0
   -4.2906   35.3306   10.2297 H   0  0  0  0  0  0  0  0  0  0  0  0
   -2.6680   34.8909    9.6607 H   0  0  0  0  0  0  0  0  0  0  0  0
  1  2  1  0  0  0  0
  1 30  1  0  0  0  0
  1 31  1  0  0  0  0
  1 32  1  0  0  0  0
  2  3  1  0  0  0  0
  2  4  1  0  0  0  0
  2  5  1  0  0  0  0
  3 33  1  0  0  0  0
  3 34  1  0  0  0  0
  3 35  1  0  0  0  0
  4 36  1  0  0  0  0
  4 37  1  0  0  0  0
  4 38  1  0  0  0  0
  5  6  1  0  0  0  0
  5 39  1  0  0  0  0
  5 40  1  0  0  0  0
  6  7  2  0  0  0  0
  6  8  1  0  0  0  0
  8  9  1  0  0  0  0
  8 13  1  0  0  0  0
  9 10  1  0  0  0  0
  9 41  1  0  0  0  0
  9 42  1  0  0  0  0
 10 11  1  0  0  0  0
 10 12  1  0  0  0  0
 10 43  1  1  0  0  0
 11 44  1  0  0  0  0
 12 13  1  0  0  0  0
 12 45  1  0  0  0  0
 12 46  1  0  0  0  0
 13 14  1  0  0  0  0
 13 47  1  1  0  0  0
 14 15  2  0  0  0  0
 14 16  1  0  0  0  0
 16 17  1  0  0  0  0
 16 48  1  0  0  0  0
 17 18  1  0  0  0  0
 17 49  1  0  0  0  0
 17 50  1  0  0  0  0
 18 19  2  0  0  0  0
 18 21  1  0  0  0  0
 19 20  1  0  0  0  0
 19 51  1  0  0  0  0
 20 23  2  0  0  0  0
 20 52  1  0  0  0  0
 21 22  2  0  0  0  0
 21 53  1  0  0  0  0
 22 23  1  0  0  0  0
 22 54  1  0  0  0  0
 23 24  1  0  0  0  0
 24 25  1  0  0  0  0
 24 28  2  0  0  0  0
 25 26  1  0  0  0  0
 26 27  2  0  0  0  0
 26 55  1  0  0  0  0
 27 28  1  0  0  0  0
 28 29  1  0  0  0  0
 29 56  1  0  0  0  0
 29 57  1  0  0  0  0
 29 58  1  0  0  0  0
M  END
$$$$
