3N8
 OpenBabel04111922193D

 14 14  0  0  0  0  0  0  0  0999 V2000
  -16.9478  -51.3865  -33.4996 C   0  0  0  0  0  0  0  0  0  0  0  0
  -18.3208  -51.2520  -33.6780 C   0  0  0  0  0  0  0  0  0  0  0  0
  -18.8350  -50.5953  -34.7827 C   0  0  0  0  0  0  0  0  0  0  0  0
  -17.9474  -50.0818  -35.7264 C   0  0  0  0  0  0  0  0  0  0  0  0
  -16.5668  -50.2235  -35.5682 C   0  0  0  0  0  0  0  0  0  0  0  0
  -16.0539  -50.8844  -34.4446 C   0  0  0  0  0  0  0  0  0  0  0  0
  -16.5179  -52.0080  -32.3632 O   0  0  0  0  0  0  0  0  0  0  0  0
  -19.1786  -51.7514  -32.7378 O   0  0  0  0  0  0  0  0  0  0  0  0
  -18.4231  -49.4446  -36.8002 F   0  0  0  0  0  0  0  0  0  0  0  0
  -19.9032  -50.4725  -34.9142 H   0  0  0  0  0  0  0  0  0  0  0  0
  -15.9000  -49.8269  -36.3272 H   0  0  0  0  0  0  0  0  0  0  0  0
  -14.9838  -51.0060  -34.3325 H   0  0  0  0  0  0  0  0  0  0  0  0
  -15.8072  -51.4576  -31.9919 H   0  0  0  0  0  0  0  0  0  0  0  0
  -18.6066  -52.2062  -32.0900 H   0  0  0  0  0  0  0  0  0  0  0  0
  1  2  2  0  0  0  0
  1  6  1  0  0  0  0
  1  7  1  0  0  0  0
  2  3  1  0  0  0  0
  2  8  1  0  0  0  0
  3  4  2  0  0  0  0
  3 10  1  0  0  0  0
  4  5  1  0  0  0  0
  4  9  1  0  0  0  0
  5  6  2  0  0  0  0
  5 11  1  0  0  0  0
  6 12  1  0  0  0  0
  7 13  1  0  0  0  0
  8 14  1  0  0  0  0
M  END
$$$$
