3P2
 OpenBabel04111922193D

 51 54  0  0  0  0  0  0  0  0999 V2000
   12.6858   -9.4740  -11.1141 O   0  0  0  0  0  0  0  0  0  0  0  0
   13.5469   -8.6089  -10.5113 C   0  0  0  0  0  0  0  0  0  0  0  0
   13.0598   -7.3245  -10.6527 C   0  0  0  0  0  0  0  0  0  0  0  0
   11.8573   -7.4861  -11.3910 C   0  0  0  0  0  0  0  0  0  0  0  0
   10.8938   -6.4460  -11.8261 C   0  0  0  0  0  0  0  0  0  0  0  0
   14.7380   -9.2273   -9.8945 C   0  0  0  0  0  0  0  0  0  0  0  0
   13.6878   -6.1320  -10.1250 C   0  0  0  0  0  0  0  0  0  0  0  0
   13.8703   -5.0052  -10.9351 C   0  0  0  0  0  0  0  0  0  0  0  0
   15.6222   -2.6334   -8.5649 C   0  0  0  0  0  0  0  0  0  0  0  0
   16.8186   -0.7689   -8.5672 C   0  0  0  0  0  0  0  0  0  0  0  0
   15.8220   -2.2411   -7.2245 C   0  0  0  0  0  0  0  0  0  0  0  0
   11.6292   -8.7757  -11.6654 N   0  0  0  0  0  0  0  0  0  0  0  0
   14.0967   -6.0894   -8.7914 C   0  0  0  0  0  0  0  0  0  0  0  0
   14.7138   -4.9522   -8.2768 C   0  0  0  0  0  0  0  0  0  0  0  0
   14.9135   -3.8372   -9.0898 C   0  0  0  0  0  0  0  0  0  0  0  0
   14.4804   -3.8581  -10.4216 C   0  0  0  0  0  0  0  0  0  0  0  0
   16.2214   -1.6468   -9.3535 N   0  3  0  0  0  0  0  0  0  0  0  0
   16.5889   -1.1095   -7.3049 N   0  3  0  0  0  0  0  0  0  0  0  0
   17.5935    0.3418   -8.9153 C   0  0  0  0  0  0  0  0  0  0  0  0
   18.1331    1.1290   -7.9426 N   0  0  0  0  0  0  0  0  0  0  0  0
   17.9058    0.8005   -6.6408 C   0  0  0  0  0  0  0  0  0  0  0  0
   17.1625   -0.2921   -6.2010 C   0  0  0  0  0  0  0  0  0  0  0  0
   15.4325   -2.6771   -5.9678 N   0  0  0  0  0  0  0  0  0  0  0  0
   14.0953   -2.3771   -5.3943 C   0  0  0  0  0  0  0  0  0  0  0  0
   13.7878   -3.4026   -4.2909 C   0  0  0  0  0  0  0  0  0  0  0  0
   14.1452   -0.9752   -4.7830 C   0  0  0  0  0  0  0  0  0  0  0  0
   12.9640   -2.4269   -6.4357 C   0  0  0  0  0  0  0  0  0  0  0  0
   10.0343   -6.8731  -12.3512 H   0  0  0  0  0  0  0  0  0  0  0  0
   11.3751   -5.7363  -12.5069 H   0  0  0  0  0  0  0  0  0  0  0  0
   10.5194   -5.8876  -10.9615 H   0  0  0  0  0  0  0  0  0  0  0  0
   15.3960   -8.4835   -9.4319 H   0  0  0  0  0  0  0  0  0  0  0  0
   15.3299   -9.7623  -10.6417 H   0  0  0  0  0  0  0  0  0  0  0  0
   14.4446   -9.9373   -9.1130 H   0  0  0  0  0  0  0  0  0  0  0  0
   13.5545   -5.0134  -11.9770 H   0  0  0  0  0  0  0  0  0  0  0  0
   13.9496   -6.9493   -8.1389 H   0  0  0  0  0  0  0  0  0  0  0  0
   15.0472   -4.9848   -7.2453 H   0  0  0  0  0  0  0  0  0  0  0  0
   14.5814   -2.9969  -11.0767 H   0  0  0  0  0  0  0  0  0  0  0  0
   17.7939    0.6063   -9.9462 H   0  0  0  0  0  0  0  0  0  0  0  0
   18.3679    1.4740   -5.9169 H   0  0  0  0  0  0  0  0  0  0  0  0
   17.0121   -0.5158   -5.1546 H   0  0  0  0  0  0  0  0  0  0  0  0
   15.8177   -3.5470   -5.5990 H   0  0  0  0  0  0  0  0  0  0  0  0
   12.8360   -3.1736   -3.7980 H   0  0  0  0  0  0  0  0  0  0  0  0
   14.5708   -3.4091   -3.5245 H   0  0  0  0  0  0  0  0  0  0  0  0
   13.7169   -4.4182   -4.6979 H   0  0  0  0  0  0  0  0  0  0  0  0
   13.1962   -0.7120   -4.3080 H   0  0  0  0  0  0  0  0  0  0  0  0
   14.3499   -0.2213   -5.5508 H   0  0  0  0  0  0  0  0  0  0  0  0
   14.9346   -0.9048   -4.0243 H   0  0  0  0  0  0  0  0  0  0  0  0
   12.0030   -2.1632   -5.9775 H   0  0  0  0  0  0  0  0  0  0  0  0
   12.8483   -3.4239   -6.8682 H   0  0  0  0  0  0  0  0  0  0  0  0
   13.1294   -1.7176   -7.2544 H   0  0  0  0  0  0  0  0  0  0  0  0
   16.2524   -1.6453  -10.3674 H   0  0  0  0  0  0  0  0  0  0  0  0
  1  2  1  0  0  0  0
  1 12  1  0  0  0  0
  2  3  2  0  0  0  0
  2  6  1  0  0  0  0
  3  4  1  0  0  0  0
  3  7  1  0  0  0  0
  4  5  1  0  0  0  0
  4 12  2  0  0  0  0
  5 28  1  0  0  0  0
  5 29  1  0  0  0  0
  5 30  1  0  0  0  0
  6 31  1  0  0  0  0
  6 32  1  0  0  0  0
  6 33  1  0  0  0  0
  7  8  2  0  0  0  0
  7 13  1  0  0  0  0
  8 16  1  0  0  0  0
  8 34  1  0  0  0  0
  9 11  1  0  0  0  0
  9 15  1  0  0  0  0
  9 17  2  0  0  0  0
 10 17  1  0  0  0  0
 10 18  1  0  0  0  0
 10 19  2  0  0  0  0
 11 18  2  0  0  0  0
 11 23  1  0  0  0  0
 13 14  2  0  0  0  0
 13 35  1  0  0  0  0
 14 15  1  0  0  0  0
 14 36  1  0  0  0  0
 15 16  2  0  0  0  0
 16 37  1  0  0  0  0
 17 51  1  0  0  0  0
 18 22  1  0  0  0  0
 19 20  1  0  0  0  0
 19 38  1  0  0  0  0
 20 21  1  0  0  0  0
 21 22  2  0  0  0  0
 21 39  1  0  0  0  0
 22 40  1  0  0  0  0
 23 24  1  0  0  0  0
 23 41  1  0  0  0  0
 24 25  1  0  0  0  0
 24 26  1  0  0  0  0
 24 27  1  0  0  0  0
 25 42  1  0  0  0  0
 25 43  1  0  0  0  0
 25 44  1  0  0  0  0
 26 45  1  0  0  0  0
 26 46  1  0  0  0  0
 26 47  1  0  0  0  0
 27 48  1  0  0  0  0
 27 49  1  0  0  0  0
 27 50  1  0  0  0  0
M  CHG  2  17   1  18   1
M  END
$$$$
