3QS
 OpenBabel04111921433D

 57 61  0  0  0  0  0  0  0  0999 V2000
  -51.8346   -2.4764  -28.0922 C   0  0  0  0  0  0  0  0  0  0  0  0
  -53.0714   -1.6304  -27.7591 C   0  0  0  0  0  0  0  0  0  0  0  0
  -56.3179    0.4082  -26.4476 C   0  0  0  0  0  0  0  0  0  0  0  0
  -52.1324   -1.3582  -25.4178 C   0  0  0  0  0  0  0  0  0  0  0  0
  -50.8441   -2.0358  -25.8695 C   0  0  0  0  0  0  0  0  0  0  0  0
  -54.3208   -0.6186  -26.0065 C   0  0  0  0  0  0  0  0  0  0  0  0
  -56.1962    1.2506  -25.3725 C   0  0  0  0  0  0  0  0  0  0  0  0
  -55.0567    1.1063  -24.6170 C   0  0  0  0  0  0  0  0  0  0  0  0
  -50.6416   -1.8732  -27.3668 C   0  0  0  0  0  0  0  0  0  0  0  0
  -49.0144   -3.6706  -27.6452 C   0  0  0  0  0  0  0  0  0  0  0  0
  -49.3698   -2.3145  -27.8382 O   0  0  0  0  0  0  0  0  0  0  0  0
  -53.2872   -1.5443  -26.3135 N   0  0  0  0  0  0  0  0  0  0  0  0
  -55.3936   -0.5097  -26.8009 N   0  0  0  0  0  0  0  0  0  0  0  0
  -54.1630    0.1539  -24.9261 N   0  0  0  0  0  0  0  0  0  0  0  0
  -54.8817    1.8737  -23.4652 N   0  0  0  0  0  0  0  0  0  0  0  0
  -54.1704    1.6333  -22.2901 C   0  0  0  0  0  0  0  0  0  0  0  0
  -53.2066    0.6244  -22.1712 C   0  0  0  0  0  0  0  0  0  0  0  0
  -52.6198    0.4293  -20.9133 C   0  0  0  0  0  0  0  0  0  0  0  0
  -53.0130    1.2099  -19.8281 C   0  0  0  0  0  0  0  0  0  0  0  0
  -52.2633    0.7749  -18.7073 C   0  0  0  0  0  0  0  0  0  0  0  0
  -51.4184   -0.2253  -19.1278 C   0  0  0  0  0  0  0  0  0  0  0  0
  -51.6312   -0.4390  -20.4677 N   0  3  0  0  0  0  0  0  0  0  0  0
  -50.9088   -1.3996  -21.3065 C   0  0  0  0  0  0  0  0  0  0  0  0
  -49.9238   -0.7015  -22.2507 C   0  0  0  0  0  0  0  0  0  0  0  0
  -48.6925   -0.4871  -21.3856 C   0  0  0  0  0  0  0  0  0  0  0  0
  -48.5915   -1.7634  -20.5582 C   0  0  0  0  0  0  0  0  0  0  0  0
  -49.9949   -2.3838  -20.5454 C   0  0  0  0  0  0  0  0  0  0  0  0
  -53.9838    2.1961  -20.0228 C   0  0  0  0  0  0  0  0  0  0  0  0
  -54.5240    2.4092  -21.2489 N   0  0  0  0  0  0  0  0  0  0  0  0
  -51.6686   -2.4874  -29.1746 H   0  0  0  0  0  0  0  0  0  0  0  0
  -51.9979   -3.5167  -27.7871 H   0  0  0  0  0  0  0  0  0  0  0  0
  -53.9429   -2.0815  -28.2494 H   0  0  0  0  0  0  0  0  0  0  0  0
  -52.9320   -0.6264  -28.1842 H   0  0  0  0  0  0  0  0  0  0  0  0
  -57.2058    0.4423  -27.0842 H   0  0  0  0  0  0  0  0  0  0  0  0
  -51.8913   -0.2943  -25.2898 H   0  0  0  0  0  0  0  0  0  0  0  0
  -52.3921   -1.7644  -24.4304 H   0  0  0  0  0  0  0  0  0  0  0  0
  -50.8566   -3.0927  -25.5804 H   0  0  0  0  0  0  0  0  0  0  0  0
  -49.9957   -1.5900  -25.3375 H   0  0  0  0  0  0  0  0  0  0  0  0
  -56.9723    1.9604  -25.1183 H   0  0  0  0  0  0  0  0  0  0  0  0
  -50.6310   -0.7976  -27.5826 H   0  0  0  0  0  0  0  0  0  0  0  0
  -48.0097   -3.8053  -28.0610 H   0  0  0  0  0  0  0  0  0  0  0  0
  -49.6926   -4.3394  -28.1793 H   0  0  0  0  0  0  0  0  0  0  0  0
  -48.9655   -3.9272  -26.5841 H   0  0  0  0  0  0  0  0  0  0  0  0
  -55.3827    2.7483  -23.4067 H   0  0  0  0  0  0  0  0  0  0  0  0
  -52.8944    0.0411  -23.0142 H   0  0  0  0  0  0  0  0  0  0  0  0
  -52.3192    1.1595  -17.7001 H   0  0  0  0  0  0  0  0  0  0  0  0
  -50.6834   -0.7762  -18.5588 H   0  0  0  0  0  0  0  0  0  0  0  0
  -51.6742   -1.9550  -21.8621 H   0  0  0  0  0  0  0  0  0  0  0  0
  -50.2936    0.2364  -22.6738 H   0  0  0  0  0  0  0  0  0  0  0  0
  -49.6663   -1.3700  -23.0800 H   0  0  0  0  0  0  0  0  0  0  0  0
  -48.8388    0.3786  -20.7288 H   0  0  0  0  0  0  0  0  0  0  0  0
  -47.7921   -0.3040  -21.9793 H   0  0  0  0  0  0  0  0  0  0  0  0
  -48.2306   -1.5482  -19.5473 H   0  0  0  0  0  0  0  0  0  0  0  0
  -47.8822   -2.4610  -21.0181 H   0  0  0  0  0  0  0  0  0  0  0  0
  -49.9609   -3.3461  -21.0704 H   0  0  0  0  0  0  0  0  0  0  0  0
  -50.3281   -2.6134  -19.5295 H   0  0  0  0  0  0  0  0  0  0  0  0
  -54.3411    2.8277  -19.2177 H   0  0  0  0  0  0  0  0  0  0  0  0
  1  2  1  0  0  0  0
  1  9  1  0  0  0  0
  1 30  1  0  0  0  0
  1 31  1  0  0  0  0
  2 12  1  0  0  0  0
  2 32  1  0  0  0  0
  2 33  1  0  0  0  0
  3  7  2  0  0  0  0
  3 13  1  0  0  0  0
  3 34  1  0  0  0  0
  4  5  1  0  0  0  0
  4 12  1  0  0  0  0
  4 35  1  0  0  0  0
  4 36  1  0  0  0  0
  5  9  1  0  0  0  0
  5 37  1  0  0  0  0
  5 38  1  0  0  0  0
  6 12  1  0  0  0  0
  6 13  2  0  0  0  0
  6 14  1  0  0  0  0
  7  8  1  0  0  0  0
  7 39  1  0  0  0  0
  8 14  2  0  0  0  0
  8 15  1  0  0  0  0
  9 11  1  0  0  0  0
  9 40  1  0  0  0  0
 10 11  1  0  0  0  0
 10 41  1  0  0  0  0
 10 42  1  0  0  0  0
 10 43  1  0  0  0  0
 15 16  1  0  0  0  0
 15 44  1  0  0  0  0
 16 17  2  0  0  0  0
 16 29  1  0  0  0  0
 17 18  1  0  0  0  0
 17 45  1  0  0  0  0
 18 19  1  0  0  0  0
 18 22  2  0  0  0  0
 19 20  1  0  0  0  0
 19 28  2  0  0  0  0
 20 21  2  0  0  0  0
 20 46  1  0  0  0  0
 21 22  1  0  0  0  0
 21 47  1  0  0  0  0
 22 23  1  0  0  0  0
 23 24  1  0  0  0  0
 23 27  1  0  0  0  0
 23 48  1  0  0  0  0
 24 25  1  0  0  0  0
 24 49  1  0  0  0  0
 24 50  1  0  0  0  0
 25 26  1  0  0  0  0
 25 51  1  0  0  0  0
 25 52  1  0  0  0  0
 26 27  1  0  0  0  0
 26 53  1  0  0  0  0
 26 54  1  0  0  0  0
 27 55  1  0  0  0  0
 27 56  1  0  0  0  0
 28 29  1  0  0  0  0
 28 57  1  0  0  0  0
M  CHG  1  22   1
M  END
$$$$
