3T7
 OpenBabel04111921443D

 63 67  0  0  1  0  0  0  0  0999 V2000
   15.8919    1.5323   18.0290 O   0  0  0  0  0  0  0  0  0  0  0  0
   15.2902    1.3901   16.7203 S   0  0  0  0  0  0  0  0  0  0  0  0
   16.0234    2.6437   15.7095 C   0  0  0  0  0  0  0  0  0  0  0  0
   17.2771    2.6928   15.3183 N   0  0  0  0  0  0  0  0  0  0  0  0
   17.4971    3.7811   14.4836 N   0  0  0  0  0  0  0  0  0  0  0  0
   16.4199    4.5205   14.2679 C   0  0  0  0  0  0  0  0  0  0  0  0
   16.3592    5.5922   13.4212 N   0  0  0  0  0  0  0  0  0  0  0  0
   17.5871    6.0277   12.7368 C   0  0  0  0  0  0  0  0  0  0  0  0
   18.4116    7.1158   13.3616 C   0  0  0  0  0  0  0  0  0  0  0  0
   18.6516    8.4146   12.9265 C   0  0  0  0  0  0  0  0  0  0  0  0
   19.4696    8.9628   13.8767 N   0  3  0  0  0  0  0  0  0  0  0  0
   19.9392   10.2967   13.9601 C   0  0  0  0  0  0  0  0  0  0  0  0
   21.1426   10.5624   14.6223 C   0  0  0  0  0  0  0  0  0  0  0  0
   21.6311   11.8691   14.6760 C   0  0  0  0  0  0  0  0  0  0  0  0
   20.9026   12.9132   14.1109 C   0  0  0  0  0  0  0  0  0  0  0  0
   19.6877   12.6535   13.4768 C   0  0  0  0  0  0  0  0  0  0  0  0
   19.2099   11.3432   13.3831 C   0  0  0  0  0  0  0  0  0  0  0  0
   19.8044    8.0156   14.7885 N   0  0  0  0  0  0  0  0  0  0  0  0
   19.1242    6.9116   14.5105 N   0  0  0  0  0  0  0  0  0  0  0  0
   15.2293    6.5347   13.4678 C   0  0  0  0  0  0  0  0  0  0  0  0
   15.0364    7.4018   12.2686 C   0  0  0  0  0  0  0  0  0  0  0  0
   15.5220    8.6716   12.0458 C   0  0  0  0  0  0  0  0  0  0  0  0
   15.2489    8.8992   10.7320 N   0  3  0  0  0  0  0  0  0  0  0  0
   15.6384   10.0761    9.9550 C   0  0  1  0  0  0  0  0  0  0  0  0
   15.3569    9.8871    8.4559 C   0  0  1  0  0  0  0  0  0  0  0  0
   15.1142   11.2190    7.7356 C   0  0  2  0  0  0  0  0  0  0  0  0
   15.6778   12.4273    8.4952 C   0  0  1  0  0  0  0  0  0  0  0  0
   15.2609   12.4600    9.9827 C   0  0  1  0  0  0  0  0  0  0  0  0
   14.0370   13.3597   10.2066 C   0  0  0  0  0  0  0  0  0  0  0  0
   12.9572   12.9413    9.3743 O   0  0  0  0  0  0  0  0  0  0  0  0
   14.9161   11.1740   10.5110 O   0  0  0  0  0  0  0  0  0  0  0  0
   17.1140   12.3766    8.4555 O   0  0  0  0  0  0  0  0  0  0  0  0
   13.7214   11.3643    7.4475 O   0  0  0  0  0  0  0  0  0  0  0  0
   16.4572    9.2026    7.8410 O   0  0  0  0  0  0  0  0  0  0  0  0
   14.5392    7.8762   10.2100 N   0  0  0  0  0  0  0  0  0  0  0  0
   14.4211    6.9440   11.1435 N   0  0  0  0  0  0  0  0  0  0  0  0
   15.0435    3.9065   15.1342 S   0  0  0  0  0  0  0  0  0  0  0  0
   15.7317   -0.1337   16.1686 N   0  0  0  0  0  0  0  0  0  0  0  0
   13.8601    1.4735   16.5249 O   0  0  0  0  0  0  0  0  0  0  0  0
   17.3197    6.3574   11.7206 H   0  0  0  0  0  0  0  0  0  0  0  0
   18.2460    5.1678   12.5401 H   0  0  0  0  0  0  0  0  0  0  0  0
   18.3512    8.9503   12.0409 H   0  0  0  0  0  0  0  0  0  0  0  0
   21.7355    9.7560   15.0575 H   0  0  0  0  0  0  0  0  0  0  0  0
   22.5910   12.0702   15.1560 H   0  0  0  0  0  0  0  0  0  0  0  0
   21.2812   13.9322   14.1657 H   0  0  0  0  0  0  0  0  0  0  0  0
   19.1106   13.4776   13.0592 H   0  0  0  0  0  0  0  0  0  0  0  0
   18.2493   11.1783   12.9032 H   0  0  0  0  0  0  0  0  0  0  0  0
   15.3478    7.1819   14.3479 H   0  0  0  0  0  0  0  0  0  0  0  0
   14.2776    6.0038   13.6016 H   0  0  0  0  0  0  0  0  0  0  0  0
   16.0752    9.3640   12.6576 H   0  0  0  0  0  0  0  0  0  0  0  0
   16.7143   10.2013   10.1420 H   0  0  0  0  0  0  0  0  0  0  0  0
   14.4641    9.2656    8.2999 H   0  0  0  0  0  0  0  0  0  0  0  0
   15.6075   11.1714    6.7575 H   0  0  0  0  0  0  0  0  0  0  0  0
   15.3824   13.3613    8.0050 H   0  0  0  0  0  0  0  0  0  0  0  0
   16.0853   12.8512   10.5937 H   0  0  0  0  0  0  0  0  0  0  0  0
   14.2745   14.4014    9.9699 H   0  0  0  0  0  0  0  0  0  0  0  0
   13.6964   13.2939   11.2455 H   0  0  0  0  0  0  0  0  0  0  0  0
   12.2302   13.5800    9.5047 H   0  0  0  0  0  0  0  0  0  0  0  0
   17.3800   12.4070    7.5170 H   0  0  0  0  0  0  0  0  0  0  0  0
   13.2621   11.6170    8.2800 H   0  0  0  0  0  0  0  0  0  0  0  0
   16.1294    8.8616    6.9879 H   0  0  0  0  0  0  0  0  0  0  0  0
   15.6698   -0.2825   15.1652 H   0  0  0  0  0  0  0  0  0  0  0  0
   16.5160   -0.5441   16.6709 H   0  0  0  0  0  0  0  0  0  0  0  0
  1  2  2  0  0  0  0
  2  3  1  0  0  0  0
  2 38  1  0  0  0  0
  2 39  2  0  0  0  0
  3  4  2  0  0  0  0
  3 37  1  0  0  0  0
  4  5  1  0  0  0  0
  5  6  2  0  0  0  0
  6  7  1  0  0  0  0
  6 37  1  0  0  0  0
  7  8  1  0  0  0  0
  7 20  1  0  0  0  0
  8  9  1  0  0  0  0
  8 40  1  0  0  0  0
  8 41  1  0  0  0  0
  9 10  1  0  0  0  0
  9 19  2  0  0  0  0
 10 11  2  0  0  0  0
 10 42  1  0  0  0  0
 11 12  1  0  0  0  0
 11 18  1  0  0  0  0
 12 13  2  0  0  0  0
 12 17  1  0  0  0  0
 13 14  1  0  0  0  0
 13 43  1  0  0  0  0
 14 15  2  0  0  0  0
 14 44  1  0  0  0  0
 15 16  1  0  0  0  0
 15 45  1  0  0  0  0
 16 17  2  0  0  0  0
 16 46  1  0  0  0  0
 17 47  1  0  0  0  0
 18 19  1  0  0  0  0
 20 21  1  0  0  0  0
 20 48  1  0  0  0  0
 20 49  1  0  0  0  0
 21 22  1  0  0  0  0
 21 36  2  0  0  0  0
 22 23  2  0  0  0  0
 22 50  1  0  0  0  0
 23 24  1  0  0  0  0
 23 35  1  0  0  0  0
 24 25  1  0  0  0  0
 24 31  1  0  0  0  0
 24 51  1  1  0  0  0
 25 26  1  0  0  0  0
 25 34  1  0  0  0  0
 25 52  1  6  0  0  0
 26 27  1  0  0  0  0
 26 33  1  0  0  0  0
 26 53  1  6  0  0  0
 27 28  1  0  0  0  0
 27 32  1  0  0  0  0
 27 54  1  6  0  0  0
 28 29  1  0  0  0  0
 28 31  1  0  0  0  0
 28 55  1  1  0  0  0
 29 30  1  0  0  0  0
 29 56  1  0  0  0  0
 29 57  1  0  0  0  0
 30 58  1  0  0  0  0
 32 59  1  0  0  0  0
 33 60  1  0  0  0  0
 34 61  1  0  0  0  0
 35 36  1  0  0  0  0
 38 62  1  0  0  0  0
 38 63  1  0  0  0  0
M  CHG  2  11   1  23   1
M  END
$$$$
