3TW
 OpenBabel04111922233D

 45 48  0  0  0  0  0  0  0  0999 V2000
  -16.6675   -2.7882    4.7567 O   0  0  0  0  0  0  0  0  0  0  0  0
  -16.3215   -2.5553    3.4604 C   0  0  0  0  0  0  0  0  0  0  0  0
  -14.9877   -2.7286    3.1099 C   0  0  0  0  0  0  0  0  0  0  0  0
  -14.5833   -2.4881    1.7987 C   0  0  0  0  0  0  0  0  0  0  0  0
  -17.2670   -2.1605    2.5155 C   0  0  0  0  0  0  0  0  0  0  0  0
  -16.8740   -1.9494    1.1897 C   0  0  0  0  0  0  0  0  0  0  0  0
  -15.5269   -2.0936    0.8380 C   0  0  0  0  0  0  0  0  0  0  0  0
  -15.0978   -1.8168   -0.4797 N   0  3  0  0  0  0  0  0  0  0  0  0
  -13.8596   -1.3641   -0.8651 C   0  0  0  0  0  0  0  0  0  0  0  0
  -15.8989   -1.9418   -1.5587 N   0  0  0  0  0  0  0  0  0  0  0  0
  -15.1782   -1.6585   -2.6404 N   0  0  0  0  0  0  0  0  0  0  0  0
  -13.9293   -1.2662   -2.2364 C   0  0  0  0  0  0  0  0  0  0  0  0
  -12.8694   -0.7972   -3.1202 C   0  0  0  0  0  0  0  0  0  0  0  0
  -13.0649   -0.9741   -4.4504 N   0  0  0  0  0  0  0  0  0  0  0  0
  -11.7126   -0.2102   -2.6156 C   0  0  0  0  0  0  0  0  0  0  0  0
  -10.7231    0.2075   -3.4949 C   0  0  0  0  0  0  0  0  0  0  0  0
  -10.9057    0.0336   -4.8634 C   0  0  0  0  0  0  0  0  0  0  0  0
   -9.9235    0.4450   -5.7742 C   0  0  0  0  0  0  0  0  0  0  0  0
  -12.1016   -0.5676   -5.3084 C   0  0  0  0  0  0  0  0  0  0  0  0
  -12.2756   -0.7514   -6.6705 C   0  0  0  0  0  0  0  0  0  0  0  0
  -11.2927   -0.3420   -7.5817 C   0  0  0  0  0  0  0  0  0  0  0  0
  -10.1147    0.2608   -7.1400 C   0  0  0  0  0  0  0  0  0  0  0  0
   -9.2440    0.6301   -8.1203 O   0  0  0  0  0  0  0  0  0  0  0  0
   -8.0055    1.2307   -7.7212 C   0  0  0  0  0  0  0  0  0  0  0  0
   -7.1041    1.3127   -8.9489 C   0  0  0  0  0  0  0  0  0  0  0  0
   -6.7505   -0.0232   -9.3198 O   0  0  0  0  0  0  0  0  0  0  0  0
   -5.6438   -0.0705  -10.2015 C   0  0  0  0  0  0  0  0  0  0  0  0
  -17.6236   -2.6443    4.8514 H   0  0  0  0  0  0  0  0  0  0  0  0
  -14.2665   -3.0531    3.8549 H   0  0  0  0  0  0  0  0  0  0  0  0
  -13.5434   -2.6639    1.5375 H   0  0  0  0  0  0  0  0  0  0  0  0
  -18.3048   -2.0056    2.7961 H   0  0  0  0  0  0  0  0  0  0  0  0
  -17.6156   -1.6228    0.4614 H   0  0  0  0  0  0  0  0  0  0  0  0
  -13.0972   -1.1130   -0.1443 H   0  0  0  0  0  0  0  0  0  0  0  0
  -11.5648   -0.0652   -1.5524 H   0  0  0  0  0  0  0  0  0  0  0  0
   -9.8125    0.6548   -3.1051 H   0  0  0  0  0  0  0  0  0  0  0  0
   -9.0182    0.9009   -5.3927 H   0  0  0  0  0  0  0  0  0  0  0  0
  -13.1890   -1.2102   -7.0305 H   0  0  0  0  0  0  0  0  0  0  0  0
  -11.4554   -0.4995   -8.6448 H   0  0  0  0  0  0  0  0  0  0  0  0
   -7.4986    0.6217   -6.9620 H   0  0  0  0  0  0  0  0  0  0  0  0
   -8.2000    2.2369   -7.3329 H   0  0  0  0  0  0  0  0  0  0  0  0
   -6.2024    1.8871   -8.7088 H   0  0  0  0  0  0  0  0  0  0  0  0
   -7.6322    1.7889   -9.7828 H   0  0  0  0  0  0  0  0  0  0  0  0
   -5.4576   -1.1179  -10.4546 H   0  0  0  0  0  0  0  0  0  0  0  0
   -4.7556    0.3277   -9.7028 H   0  0  0  0  0  0  0  0  0  0  0  0
   -5.8500    0.4864  -11.1195 H   0  0  0  0  0  0  0  0  0  0  0  0
  1  2  1  0  0  0  0
  1 28  1  0  0  0  0
  2  3  2  0  0  0  0
  2  5  1  0  0  0  0
  3  4  1  0  0  0  0
  3 29  1  0  0  0  0
  4  7  2  0  0  0  0
  4 30  1  0  0  0  0
  5  6  2  0  0  0  0
  5 31  1  0  0  0  0
  6  7  1  0  0  0  0
  6 32  1  0  0  0  0
  7  8  1  0  0  0  0
  8  9  2  0  0  0  0
  8 10  1  0  0  0  0
  9 12  1  0  0  0  0
  9 33  1  0  0  0  0
 10 11  1  0  0  0  0
 11 12  2  0  0  0  0
 12 13  1  0  0  0  0
 13 14  2  0  0  0  0
 13 15  1  0  0  0  0
 14 19  1  0  0  0  0
 15 16  2  0  0  0  0
 15 34  1  0  0  0  0
 16 17  1  0  0  0  0
 16 35  1  0  0  0  0
 17 18  2  0  0  0  0
 17 19  1  0  0  0  0
 18 22  1  0  0  0  0
 18 36  1  0  0  0  0
 19 20  2  0  0  0  0
 20 21  1  0  0  0  0
 20 37  1  0  0  0  0
 21 22  2  0  0  0  0
 21 38  1  0  0  0  0
 22 23  1  0  0  0  0
 23 24  1  0  0  0  0
 24 25  1  0  0  0  0
 24 39  1  0  0  0  0
 24 40  1  0  0  0  0
 25 26  1  0  0  0  0
 25 41  1  0  0  0  0
 25 42  1  0  0  0  0
 26 27  1  0  0  0  0
 27 43  1  0  0  0  0
 27 44  1  0  0  0  0
 27 45  1  0  0  0  0
M  CHG  1   8   1
M  END
$$$$
