3UD
 OpenBabel04111922233D

 90 94  0  0  1  0  0  0  0  0999 V2000
   12.4358  -31.9434   -0.6145 C   0  0  0  0  0  0  0  0  0  0  0  0
   11.3498  -32.8469   -0.7381 O   0  0  0  0  0  0  0  0  0  0  0  0
   10.1937  -32.3589   -1.2858 C   0  0  0  0  0  0  0  0  0  0  0  0
   10.0485  -31.0324   -1.7192 C   0  0  0  0  0  0  0  0  0  0  0  0
    9.1150  -33.2421   -1.3946 C   0  0  0  0  0  0  0  0  0  0  0  0
    9.2088  -34.6697   -0.9373 C   0  0  0  0  0  0  0  0  0  0  0  0
    8.5091  -34.9816    0.0779 O   0  0  0  0  0  0  0  0  0  0  0  0
    9.9050  -35.4607   -1.6478 O   0  0  0  0  0  0  0  0  0  0  0  0
    7.9011  -32.7869   -1.9390 C   0  0  0  0  0  0  0  0  0  0  0  0
    7.7732  -31.4745   -2.3831 C   0  0  0  0  0  0  0  0  0  0  0  0
    8.8451  -30.5888   -2.2691 C   0  0  0  0  0  0  0  0  0  0  0  0
    8.6515  -29.2770   -2.7455 N   0  0  0  0  0  0  0  0  0  0  0  0
    9.4633  -28.1803   -2.5381 C   0  0  0  0  0  0  0  0  0  0  0  0
   10.4717  -28.1263   -1.8433 O   0  0  0  0  0  0  0  0  0  0  0  0
    8.9606  -26.9420   -3.2611 C   0  0  0  0  0  0  0  0  0  0  0  0
    8.3555  -25.8710   -2.3259 C   0  0  2  0  0  0  0  0  0  0  0  0
    9.4152  -25.1722   -1.4674 C   0  0  0  0  0  0  0  0  0  0  0  0
    7.3062  -26.5101   -1.3838 C   0  0  0  0  0  0  0  0  0  0  0  0
    7.5942  -24.8868   -3.2265 C   0  0  0  0  0  0  0  0  0  0  0  0
    6.5075  -25.2363   -3.7013 O   0  0  0  0  0  0  0  0  0  0  0  0
    8.1574  -23.6569   -3.5646 N   0  0  0  0  0  0  0  0  0  0  0  0
    7.2578  -22.6336   -4.1507 C   0  0  1  0  0  0  0  0  0  0  0  0
    6.9585  -22.9549   -5.6085 C   0  0  0  0  0  0  0  0  0  0  0  0
    6.4647  -21.8452   -6.5096 C   0  0  0  0  0  0  0  0  0  0  0  0
    7.8331  -22.4204   -6.7199 C   0  0  0  0  0  0  0  0  0  0  0  0
    5.9685  -22.3955   -3.3551 C   0  0  0  0  0  0  0  0  0  0  0  0
    6.2972  -21.7713   -1.7044 S   0  0  0  0  0  0  0  0  0  0  0  0
    6.9334  -20.4771   -1.8482 O   0  0  0  0  0  0  0  0  0  0  0  0
    6.9691  -22.8136   -0.9409 O   0  0  0  0  0  0  0  0  0  0  0  0
    4.6608  -21.5291   -0.9286 C   0  0  0  0  0  0  0  0  0  0  0  0
    3.8285  -20.5464   -1.7576 C   0  0  0  0  0  0  0  0  0  0  0  0
    3.9430  -22.8816   -0.8181 C   0  0  0  0  0  0  0  0  0  0  0  0
    4.8694  -20.9481    0.4812 C   0  0  0  0  0  0  0  0  0  0  0  0
    9.3955  -23.1488   -2.9343 C   0  0  2  0  0  0  0  0  0  0  0  0
   10.2187  -22.3328   -3.9334 C   0  0  0  0  0  0  0  0  0  0  0  0
   10.7410  -22.9312   -5.0851 C   0  0  0  0  0  0  0  0  0  0  0  0
   11.5186  -22.1915   -5.9645 C   0  0  0  0  0  0  0  0  0  0  0  0
   11.9871  -22.7965   -7.0697 F   0  0  0  0  0  0  0  0  0  0  0  0
   11.7884  -20.8501   -5.7162 C   0  0  0  0  0  0  0  0  0  0  0  0
   12.7568  -19.9314   -6.8028 Cl  0  0  0  0  0  0  0  0  0  0  0  0
   11.2716  -20.2360   -4.5768 C   0  0  0  0  0  0  0  0  0  0  0  0
   10.4875  -20.9703   -3.6856 C   0  0  0  0  0  0  0  0  0  0  0  0
   10.2827  -24.2400   -2.3104 C   0  0  1  0  0  0  0  0  0  0  0  0
   11.4202  -23.6198   -1.5163 C   0  0  0  0  0  0  0  0  0  0  0  0
   12.7113  -23.5879   -2.0710 C   0  0  0  0  0  0  0  0  0  0  0  0
   13.7505  -22.9581   -1.3929 C   0  0  0  0  0  0  0  0  0  0  0  0
   15.3225  -22.9150   -2.0914 Cl  0  0  0  0  0  0  0  0  0  0  0  0
   13.5207  -22.3520   -0.1614 C   0  0  0  0  0  0  0  0  0  0  0  0
   12.2414  -22.3712    0.3934 C   0  0  0  0  0  0  0  0  0  0  0  0
   11.1951  -22.9960   -0.2811 C   0  0  0  0  0  0  0  0  0  0  0  0
   13.2848  -32.4794   -0.1802 H   0  0  0  0  0  0  0  0  0  0  0  0
   12.1772  -31.1229    0.0631 H   0  0  0  0  0  0  0  0  0  0  0  0
   12.7506  -31.5654   -1.5932 H   0  0  0  0  0  0  0  0  0  0  0  0
   10.8774  -30.3489   -1.6471 H   0  0  0  0  0  0  0  0  0  0  0  0
    7.0585  -33.4756   -2.0058 H   0  0  0  0  0  0  0  0  0  0  0  0
    6.8243  -31.1507   -2.7953 H   0  0  0  0  0  0  0  0  0  0  0  0
    7.7863  -29.1314   -3.2501 H   0  0  0  0  0  0  0  0  0  0  0  0
    8.2212  -27.2424   -4.0133 H   0  0  0  0  0  0  0  0  0  0  0  0
    9.8025  -26.5493   -3.8379 H   0  0  0  0  0  0  0  0  0  0  0  0
   10.0509  -25.9058   -0.9604 H   0  0  0  0  0  0  0  0  0  0  0  0
    8.9218  -24.6116   -0.6645 H   0  0  0  0  0  0  0  0  0  0  0  0
    6.5232  -27.0338   -1.9451 H   0  0  0  0  0  0  0  0  0  0  0  0
    6.8052  -25.7452   -0.7776 H   0  0  0  0  0  0  0  0  0  0  0  0
    7.7595  -27.2291   -0.6942 H   0  0  0  0  0  0  0  0  0  0  0  0
    7.7925  -21.6763   -4.1562 H   0  0  0  0  0  0  0  0  0  0  0  0
    6.5259  -23.9390   -5.7543 H   0  0  0  0  0  0  0  0  0  0  0  0
    6.3919  -20.8455   -6.0952 H   0  0  0  0  0  0  0  0  0  0  0  0
    5.7060  -22.0698   -7.2500 H   0  0  0  0  0  0  0  0  0  0  0  0
    7.9979  -23.0369   -7.5974 H   0  0  0  0  0  0  0  0  0  0  0  0
    8.6800  -21.7977   -6.4667 H   0  0  0  0  0  0  0  0  0  0  0  0
    5.3644  -23.2968   -3.2667 H   0  0  0  0  0  0  0  0  0  0  0  0
    5.3644  -21.6423   -3.8694 H   0  0  0  0  0  0  0  0  0  0  0  0
    2.8501  -20.3694   -1.2996 H   0  0  0  0  0  0  0  0  0  0  0  0
    3.6500  -20.9242   -2.7675 H   0  0  0  0  0  0  0  0  0  0  0  0
    4.3370  -19.5802   -1.8494 H   0  0  0  0  0  0  0  0  0  0  0  0
    2.9634  -22.7783   -0.3410 H   0  0  0  0  0  0  0  0  0  0  0  0
    4.5296  -23.5941   -0.2272 H   0  0  0  0  0  0  0  0  0  0  0  0
    3.7813  -23.3295   -1.8020 H   0  0  0  0  0  0  0  0  0  0  0  0
    3.9122  -20.7838    0.9905 H   0  0  0  0  0  0  0  0  0  0  0  0
    5.3928  -19.9862    0.4410 H   0  0  0  0  0  0  0  0  0  0  0  0
    5.4678  -21.6196    1.1063 H   0  0  0  0  0  0  0  0  0  0  0  0
    9.0740  -22.4678   -2.1381 H   0  0  0  0  0  0  0  0  0  0  0  0
   10.5343  -23.9756   -5.3107 H   0  0  0  0  0  0  0  0  0  0  0  0
   11.4687  -19.1867   -4.3737 H   0  0  0  0  0  0  0  0  0  0  0  0
   10.0884  -20.4823   -2.7957 H   0  0  0  0  0  0  0  0  0  0  0  0
   10.7328  -24.8387   -3.1098 H   0  0  0  0  0  0  0  0  0  0  0  0
   12.9025  -24.0350   -3.0438 H   0  0  0  0  0  0  0  0  0  0  0  0
   14.3297  -21.8614    0.3703 H   0  0  0  0  0  0  0  0  0  0  0  0
   12.0551  -21.8956    1.3523 H   0  0  0  0  0  0  0  0  0  0  0  0
   10.2001  -22.9776    0.1614 H   0  0  0  0  0  0  0  0  0  0  0  0
  1  2  1  0  0  0  0
  1 51  1  0  0  0  0
  1 52  1  0  0  0  0
  1 53  1  0  0  0  0
  2  3  1  0  0  0  0
  3  4  2  0  0  0  0
  3  5  1  0  0  0  0
  4 11  1  0  0  0  0
  4 54  1  0  0  0  0
  5  6  1  0  0  0  0
  5  9  2  0  0  0  0
  6  7  2  0  0  0  0
  6  8  1  0  0  0  0
  9 10  1  0  0  0  0
  9 55  1  0  0  0  0
 10 11  2  0  0  0  0
 10 56  1  0  0  0  0
 11 12  1  0  0  0  0
 12 13  1  0  0  0  0
 12 57  1  0  0  0  0
 13 14  2  0  0  0  0
 13 15  1  0  0  0  0
 15 58  1  0  0  0  0
 15 59  1  0  0  0  0
 16 15  1  6  0  0  0
 16 17  1  0  0  0  0
 16 18  1  0  0  0  0
 16 19  1  0  0  0  0
 17 43  1  0  0  0  0
 17 60  1  0  0  0  0
 17 61  1  0  0  0  0
 18 62  1  0  0  0  0
 18 63  1  0  0  0  0
 18 64  1  0  0  0  0
 19 20  2  0  0  0  0
 19 21  1  0  0  0  0
 21 22  1  0  0  0  0
 21 34  1  0  0  0  0
 22 23  1  0  0  0  0
 22 26  1  0  0  0  0
 22 65  1  1  0  0  0
 23 24  1  0  0  0  0
 23 25  1  0  0  0  0
 23 66  1  0  0  0  0
 24 25  1  0  0  0  0
 24 67  1  0  0  0  0
 24 68  1  0  0  0  0
 25 69  1  0  0  0  0
 25 70  1  0  0  0  0
 26 27  1  0  0  0  0
 26 71  1  0  0  0  0
 26 72  1  0  0  0  0
 27 28  2  0  0  0  0
 27 29  2  0  0  0  0
 27 30  1  0  0  0  0
 30 31  1  0  0  0  0
 30 32  1  0  0  0  0
 30 33  1  0  0  0  0
 31 73  1  0  0  0  0
 31 74  1  0  0  0  0
 31 75  1  0  0  0  0
 32 76  1  0  0  0  0
 32 77  1  0  0  0  0
 32 78  1  0  0  0  0
 33 79  1  0  0  0  0
 33 80  1  0  0  0  0
 33 81  1  0  0  0  0
 34 35  1  0  0  0  0
 34 43  1  0  0  0  0
 34 82  1  1  0  0  0
 35 36  2  0  0  0  0
 35 42  1  0  0  0  0
 36 37  1  0  0  0  0
 36 83  1  0  0  0  0
 37 38  1  0  0  0  0
 37 39  2  0  0  0  0
 39 40  1  0  0  0  0
 39 41  1  0  0  0  0
 41 42  2  0  0  0  0
 41 84  1  0  0  0  0
 42 85  1  0  0  0  0
 43 44  1  0  0  0  0
 43 86  1  6  0  0  0
 44 45  2  0  0  0  0
 44 50  1  0  0  0  0
 45 46  1  0  0  0  0
 45 87  1  0  0  0  0
 46 47  1  0  0  0  0
 46 48  2  0  0  0  0
 48 49  1  0  0  0  0
 48 88  1  0  0  0  0
 49 50  2  0  0  0  0
 49 89  1  0  0  0  0
 50 90  1  0  0  0  0
M  END
$$$$
