3W8
 OpenBabel04111921483D

 24 24  0  0  0  0  0  0  0  0999 V2000
   -2.1755    7.2533   12.9710 C   0  0  0  0  0  0  0  0  0  0  0  0
   -2.4942    5.8751   13.5198 C   0  0  0  0  0  0  0  0  0  0  0  0
   -3.8841    5.8079   13.8446 O   0  0  0  0  0  0  0  0  0  0  0  0
   -4.3003    4.6705   14.4912 C   0  0  0  0  0  0  0  0  0  0  0  0
   -5.6553    4.6398   14.8530 C   0  0  0  0  0  0  0  0  0  0  0  0
   -6.1840    3.5530   15.5351 C   0  0  0  0  0  0  0  0  0  0  0  0
   -5.3508    2.4876   15.8853 C   0  0  0  0  0  0  0  0  0  0  0  0
   -5.9978    1.1208   16.8177 S   0  0  0  0  0  0  0  0  0  0  0  0
   -5.3061    1.0951   18.0914 O   0  0  0  0  0  0  0  0  0  0  0  0
   -7.4325    1.1378   16.7194 O   0  0  0  0  0  0  0  0  0  0  0  0
   -5.5089   -0.2242   15.9674 N   0  0  0  0  0  0  0  0  0  0  0  0
   -3.9998    2.4922   15.5234 C   0  0  0  0  0  0  0  0  0  0  0  0
   -3.4798    3.5776   14.8174 C   0  0  0  0  0  0  0  0  0  0  0  0
   -1.1160    7.3266   12.7090 H   0  0  0  0  0  0  0  0  0  0  0  0
   -2.4070    8.0254   13.7112 H   0  0  0  0  0  0  0  0  0  0  0  0
   -2.7761    7.4679   12.0821 H   0  0  0  0  0  0  0  0  0  0  0  0
   -1.8792    5.7152   14.4135 H   0  0  0  0  0  0  0  0  0  0  0  0
   -2.2565    5.1216   12.7593 H   0  0  0  0  0  0  0  0  0  0  0  0
   -6.2937    5.4851   14.6056 H   0  0  0  0  0  0  0  0  0  0  0  0
   -7.2368    3.5519   15.8232 H   0  0  0  0  0  0  0  0  0  0  0  0
   -5.6208   -1.1131   16.4518 H   0  0  0  0  0  0  0  0  0  0  0  0
   -4.8387   -0.1488   15.2080 H   0  0  0  0  0  0  0  0  0  0  0  0
   -3.3413    1.6774   15.8059 H   0  0  0  0  0  0  0  0  0  0  0  0
   -2.4350    3.5575   14.5533 H   0  0  0  0  0  0  0  0  0  0  0  0
  1  2  1  0  0  0  0
  1 14  1  0  0  0  0
  1 15  1  0  0  0  0
  1 16  1  0  0  0  0
  2  3  1  0  0  0  0
  2 17  1  0  0  0  0
  2 18  1  0  0  0  0
  3  4  1  0  0  0  0
  4  5  2  0  0  0  0
  4 13  1  0  0  0  0
  5  6  1  0  0  0  0
  5 19  1  0  0  0  0
  6  7  2  0  0  0  0
  6 20  1  0  0  0  0
  7  8  1  0  0  0  0
  7 12  1  0  0  0  0
  8  9  2  0  0  0  0
  8 10  2  0  0  0  0
  8 11  1  0  0  0  0
 11 21  1  0  0  0  0
 11 22  1  0  0  0  0
 12 13  2  0  0  0  0
 12 23  1  0  0  0  0
 13 24  1  0  0  0  0
M  END
$$$$
