3WQ
 OpenBabel04111921483D

 47 49  0  0  1  0  0  0  0  0999 V2000
   75.2480   44.5046    0.3268 C   0  0  0  0  0  0  0  0  0  0  0  0
   74.1556   44.4659   -0.7301 C   0  0  0  0  0  0  0  0  0  0  0  0
   73.4909   43.0940   -0.7772 C   0  0  0  0  0  0  0  0  0  0  0  0
   72.0988   43.2543   -1.0601 O   0  0  0  0  0  0  0  0  0  0  0  0
   71.3343   42.1082   -0.9931 C   0  0  1  0  0  0  0  0  0  0  0  0
   71.7823   40.8497   -0.7996 C   0  0  0  0  0  0  0  0  0  0  0  0
   70.8668   39.7543   -0.7495 C   0  0  1  0  0  0  0  0  0  0  0  0
   69.9119   42.3673   -1.1413 C   0  0  0  0  0  0  0  0  0  0  0  0
   69.0430   41.3414   -1.0921 C   0  0  0  0  0  0  0  0  0  0  0  0
   69.5080   40.0359   -0.8981 N   0  3  1  0  0  0  0  0  0  0  0  0
   68.8031   38.8373   -0.8470 C   0  0  1  0  0  0  0  0  0  0  0  0
   67.3615   38.6977   -0.9741 C   0  0  0  0  0  0  0  0  0  0  0  0
   66.5887   39.6403   -1.1385 O   0  0  0  0  0  0  0  0  0  0  0  0
   66.8075   37.2946   -0.8997 C   0  0  0  0  0  0  0  0  0  0  0  0
   69.7371   37.8223   -0.6818 C   0  0  0  0  0  0  0  0  0  0  0  0
   71.0237   38.3950   -0.5838 C   0  0  1  0  0  0  0  0  0  0  0  0
   72.3039   37.7202   -0.5119 C   0  0  2  0  0  0  0  0  0  0  0  0
   72.9647   37.5080   -1.7367 C   0  0  0  0  0  0  0  0  0  0  0  0
   74.1810   36.8289   -1.7911 C   0  0  0  0  0  0  0  0  0  0  0  0
   74.7575   36.3522   -0.6196 C   0  0  0  0  0  0  0  0  0  0  0  0
   74.1216   36.5598    0.6051 C   0  0  0  0  0  0  0  0  0  0  0  0
   72.8904   37.2369    0.6668 C   0  0  1  0  0  0  0  0  0  0  0  0
   72.1856   37.4984    2.2842 S   0  0  0  0  0  0  0  0  0  0  0  0
   73.1891   37.1057    3.2584 O   0  0  0  0  0  0  0  0  0  0  0  0
   71.6200   38.8310    2.3372 O   0  0  0  0  0  0  0  0  0  0  0  0
   70.8745   36.3125    2.4107 C   0  0  0  0  0  0  0  0  0  0  0  0
   75.7333   45.4845    0.3414 H   0  0  0  0  0  0  0  0  0  0  0  0
   76.0104   43.7427    0.1360 H   0  0  0  0  0  0  0  0  0  0  0  0
   74.8252   44.3229    1.3212 H   0  0  0  0  0  0  0  0  0  0  0  0
   74.5927   44.6880   -1.7113 H   0  0  0  0  0  0  0  0  0  0  0  0
   73.4202   45.2526   -0.5288 H   0  0  0  0  0  0  0  0  0  0  0  0
   73.6136   42.5871    0.1874 H   0  0  0  0  0  0  0  0  0  0  0  0
   73.9571   42.4933   -1.5683 H   0  0  0  0  0  0  0  0  0  0  0  0
   72.8340   40.6249   -0.6774 H   0  0  0  0  0  0  0  0  0  0  0  0
   69.5774   43.3860   -1.2851 H   0  0  0  0  0  0  0  0  0  0  0  0
   67.9792   41.4987   -1.2037 H   0  0  0  0  0  0  0  0  0  0  0  0
   65.7196   37.3291   -1.0023 H   0  0  0  0  0  0  0  0  0  0  0  0
   67.0503   36.8464    0.0671 H   0  0  0  0  0  0  0  0  0  0  0  0
   67.2125   36.6895   -1.7154 H   0  0  0  0  0  0  0  0  0  0  0  0
   69.5170   36.7627   -0.6457 H   0  0  0  0  0  0  0  0  0  0  0  0
   72.5270   37.8765   -2.6640 H   0  0  0  0  0  0  0  0  0  0  0  0
   74.6754   36.6758   -2.7476 H   0  0  0  0  0  0  0  0  0  0  0  0
   75.7084   35.8252   -0.6563 H   0  0  0  0  0  0  0  0  0  0  0  0
   74.6036   36.1926    1.5098 H   0  0  0  0  0  0  0  0  0  0  0  0
   70.4340   36.4052    3.4067 H   0  0  0  0  0  0  0  0  0  0  0  0
   71.2874   35.3099    2.2851 H   0  0  0  0  0  0  0  0  0  0  0  0
   70.1103   36.5116    1.6644 H   0  0  0  0  0  0  0  0  0  0  0  0
  1  2  1  0  0  0  0
  1 27  1  0  0  0  0
  1 28  1  0  0  0  0
  1 29  1  0  0  0  0
  2  3  1  0  0  0  0
  2 30  1  0  0  0  0
  2 31  1  0  0  0  0
  3  4  1  0  0  0  0
  3 32  1  0  0  0  0
  3 33  1  0  0  0  0
  5  4  1  1  0  0  0
  5  6  1  0  0  0  0
  5  8  1  0  0  0  0
  6 34  1  0  0  0  0
  7  6  1  6  0  0  0
  7 10  1  0  0  0  0
  7 16  1  0  0  0  0
  8  9  1  0  0  0  0
  8 35  1  0  0  0  0
  9 36  1  0  0  0  0
 10  9  1  6  0  0  0
 10 11  1  0  0  0  0
 11 12  1  6  0  0  0
 11 15  1  0  0  0  0
 12 13  2  0  0  0  0
 12 14  1  0  0  0  0
 14 37  1  0  0  0  0
 14 38  1  0  0  0  0
 14 39  1  0  0  0  0
 15 40  1  0  0  0  0
 16 15  1  6  0  0  0
 16 17  1  0  0  0  0
 17 18  1  6  0  0  0
 17 22  1  0  0  0  0
 18 19  1  0  0  0  0
 18 41  1  0  0  0  0
 19 20  1  0  0  0  0
 19 42  1  0  0  0  0
 20 21  1  0  0  0  0
 20 43  1  0  0  0  0
 21 22  1  0  0  0  0
 21 44  1  0  0  0  0
 22 23  1  1  0  0  0
 23 24  2  0  0  0  0
 23 25  2  0  0  0  0
 23 26  1  0  0  0  0
 26 45  1  0  0  0  0
 26 46  1  0  0  0  0
 26 47  1  0  0  0  0
M  CHG  1  10   1
M  END
$$$$
