3XJ
 OpenBabel04111922253D

 50 52  0  0  1  0  0  0  0  0999 V2000
  -15.0969   50.5210  -13.3038 O   0  0  0  0  0  0  0  0  0  0  0  0
   -6.7397   46.7073  -11.1112 C   0  0  0  0  0  0  0  0  0  0  0  0
   -5.4394   46.4458  -10.6841 C   0  0  0  0  0  0  0  0  0  0  0  0
   -2.7601   49.0931   -9.0806 O   0  0  0  0  0  0  0  0  0  0  0  0
   -9.4487   47.4858  -12.1654 C   0  0  0  0  0  0  0  0  0  0  0  0
  -10.7206   48.0982  -12.6329 C   0  0  0  0  0  0  0  0  0  0  0  0
  -11.4223   47.4326  -13.6390 C   0  0  0  0  0  0  0  0  0  0  0  0
  -12.6710   47.8949  -14.0448 C   0  0  0  0  0  0  0  0  0  0  0  0
   -2.2180   47.2311   -5.9311 O   0  0  0  0  0  0  0  0  0  0  0  0
  -13.2553   49.0211  -13.4434 C   0  0  0  0  0  0  0  0  0  0  0  0
   -0.0150   46.3137   -7.6147 O   0  0  0  0  0  0  0  0  0  0  0  0
  -12.5396   49.6775  -12.4223 C   0  0  0  0  0  0  0  0  0  0  0  0
  -11.2763   49.2283  -12.0148 C   0  0  0  0  0  0  0  0  0  0  0  0
  -14.6268   49.4977  -13.8940 C   0  0  0  0  0  0  0  0  0  0  0  0
    0.0733   48.3907   -9.4657 O   0  0  0  0  0  0  0  0  0  0  0  0
   -2.2820   48.1223  -10.0119 C   0  0  2  0  0  0  0  0  0  0  0  0
   -2.6436   50.6912   -6.7500 O   0  0  0  0  0  0  0  0  0  0  0  0
   -3.0695   48.5409   -7.7966 C   0  0  1  0  0  0  0  0  0  0  0  0
  -15.1961   48.8369  -14.8148 O   0  0  0  0  0  0  0  0  0  0  0  0
   -9.4337   46.2763  -12.0092 O   0  0  0  0  0  0  0  0  0  0  0  0
   -8.3753   48.3403  -12.0157 N   0  0  0  0  0  0  0  0  0  0  0  0
   -7.0810   47.9779  -11.5883 C   0  0  0  0  0  0  0  0  0  0  0  0
   -6.0957   48.9720  -11.6367 C   0  0  0  0  0  0  0  0  0  0  0  0
   -4.7972   48.7142  -11.1998 C   0  0  0  0  0  0  0  0  0  0  0  0
   -5.0618   44.8691  -10.0726 Cl  0  0  0  0  0  0  0  0  0  0  0  0
   -4.4640   47.4475  -10.7183 C   0  0  0  0  0  0  0  0  0  0  0  0
   -3.2269   47.0892  -10.2694 O   0  0  0  0  0  0  0  0  0  0  0  0
   -1.0060   47.4460   -9.5023 C   0  0  2  0  0  0  0  0  0  0  0  0
   -1.2590   46.8330   -8.1194 C   0  0  2  0  0  0  0  0  0  0  0  0
   -1.8401   47.8785   -7.1552 C   0  0  2  0  0  0  0  0  0  0  0  0
   -3.6306   49.6801   -6.9417 C   0  0  0  0  0  0  0  0  0  0  0  0
   -7.4662   45.9038  -11.0508 H   0  0  0  0  0  0  0  0  0  0  0  0
  -10.9980   46.5483  -14.1115 H   0  0  0  0  0  0  0  0  0  0  0  0
  -13.2171   47.3677  -14.8265 H   0  0  0  0  0  0  0  0  0  0  0  0
   -2.4131   47.9347   -5.2890 H   0  0  0  0  0  0  0  0  0  0  0  0
    0.1999   45.5279   -8.1465 H   0  0  0  0  0  0  0  0  0  0  0  0
  -13.0028   50.5381  -11.9360 H   0  0  0  0  0  0  0  0  0  0  0  0
  -10.7648   49.7519  -11.2159 H   0  0  0  0  0  0  0  0  0  0  0  0
    0.8132   47.9489   -9.0109 H   0  0  0  0  0  0  0  0  0  0  0  0
   -2.0369   48.6455  -10.9437 H   0  0  0  0  0  0  0  0  0  0  0  0
   -3.0731   51.4358   -6.2989 H   0  0  0  0  0  0  0  0  0  0  0  0
   -3.8737   47.8001   -7.9007 H   0  0  0  0  0  0  0  0  0  0  0  0
   -8.5142   49.2969  -12.3112 H   0  0  0  0  0  0  0  0  0  0  0  0
   -6.3264   49.9603  -12.0247 H   0  0  0  0  0  0  0  0  0  0  0  0
   -4.0763   49.5253  -11.2435 H   0  0  0  0  0  0  0  0  0  0  0  0
   -0.7025   46.6482  -10.1887 H   0  0  0  0  0  0  0  0  0  0  0  0
   -1.9572   45.9872   -8.1937 H   0  0  0  0  0  0  0  0  0  0  0  0
   -1.0614   48.6148   -6.9259 H   0  0  0  0  0  0  0  0  0  0  0  0
   -4.4954   50.1273   -7.4442 H   0  0  0  0  0  0  0  0  0  0  0  0
   -3.9407   49.3221   -5.9566 H   0  0  0  0  0  0  0  0  0  0  0  0
  1 14  2  0  0  0  0
  2  3  2  0  0  0  0
  2 22  1  0  0  0  0
  2 32  1  0  0  0  0
  3 25  1  0  0  0  0
  3 26  1  0  0  0  0
  4 16  1  0  0  0  0
  4 18  1  0  0  0  0
  5  6  1  0  0  0  0
  5 20  2  0  0  0  0
  5 21  1  0  0  0  0
  6  7  2  0  0  0  0
  6 13  1  0  0  0  0
  7  8  1  0  0  0  0
  7 33  1  0  0  0  0
  8 10  2  0  0  0  0
  8 34  1  0  0  0  0
  9 30  1  0  0  0  0
  9 35  1  0  0  0  0
 10 12  1  0  0  0  0
 10 14  1  0  0  0  0
 11 29  1  0  0  0  0
 11 36  1  0  0  0  0
 12 13  2  0  0  0  0
 12 37  1  0  0  0  0
 13 38  1  0  0  0  0
 14 19  1  0  0  0  0
 15 28  1  0  0  0  0
 15 39  1  0  0  0  0
 16 27  1  0  0  0  0
 16 28  1  0  0  0  0
 16 40  1  6  0  0  0
 17 31  1  0  0  0  0
 17 41  1  0  0  0  0
 18 30  1  0  0  0  0
 18 31  1  0  0  0  0
 18 42  1  6  0  0  0
 21 22  1  0  0  0  0
 21 43  1  0  0  0  0
 22 23  2  0  0  0  0
 23 24  1  0  0  0  0
 23 44  1  0  0  0  0
 24 26  2  0  0  0  0
 24 45  1  0  0  0  0
 26 27  1  0  0  0  0
 28 29  1  0  0  0  0
 28 46  1  6  0  0  0
 29 30  1  0  0  0  0
 29 47  1  6  0  0  0
 30 48  1  1  0  0  0
 31 49  1  0  0  0  0
 31 50  1  0  0  0  0
M  END
$$$$
