3Y5
 OpenBabel04111922273D

 64 69  0  0  1  0  0  0  0  0999 V2000
   42.2440  -20.9835   29.7328 N   0  0  0  0  0  0  0  0  0  0  0  0
   43.5377  -20.9309   29.2655 C   0  0  0  0  0  0  0  0  0  0  0  0
   45.6421  -22.4472   31.9999 C   0  0  0  0  0  0  0  0  0  0  0  0
   45.9320  -20.6189   29.8527 C   0  0  0  0  0  0  0  0  0  0  0  0
   44.6872  -21.2005   30.1140 C   0  0  0  0  0  0  0  0  0  0  0  0
   44.5436  -22.0811   31.2020 C   0  0  0  0  0  0  0  0  0  0  0  0
   39.3276  -18.5818   29.2367 C   0  0  0  0  0  0  0  0  0  0  0  0
   37.6106  -17.3625   27.8990 C   0  0  0  0  0  0  0  0  0  0  0  0
   36.9819  -15.9882   27.9040 C   0  0  0  0  0  0  0  0  0  0  0  0
   43.5161  -20.6948   27.9125 C   0  0  0  0  0  0  0  0  0  0  0  0
   35.6782  -13.4830   27.9052 C   0  0  0  0  0  0  0  0  0  0  0  0
   40.7922  -24.1618   27.3984 C   0  0  0  0  0  0  0  0  0  0  0  0
   40.0035  -23.3911   28.2613 C   0  0  0  0  0  0  0  0  0  0  0  0
   39.8003  -23.8378   29.5771 C   0  0  0  0  0  0  0  0  0  0  0  0
   40.4297  -24.9924   30.0397 C   0  0  0  0  0  0  0  0  0  0  0  0
   41.2429  -25.7298   29.1834 C   0  0  0  0  0  0  0  0  0  0  0  0
   41.4107  -25.3251   27.8612 C   0  0  0  0  0  0  0  0  0  0  0  0
   39.4537  -22.0525   27.8213 C   0  0  0  0  0  0  0  0  0  0  0  0
   39.9487  -20.8876   28.7108 C   0  0  2  0  0  0  0  0  0  0  0  0
   39.3064  -19.6271   28.3588 N   0  0  0  0  0  0  0  0  0  0  0  0
   41.4522  -20.7730   28.6895 C   0  0  0  0  0  0  0  0  0  0  0  0
   42.2050  -20.5704   27.5564 N   0  3  0  0  0  0  0  0  0  0  0  0
   44.6704  -20.6184   26.6739 Cl  0  0  0  0  0  0  0  0  0  0  0  0
   38.7050  -17.4502   28.8252 N   0  0  0  0  0  0  0  0  0  0  0  0
   39.8353  -18.6112   30.3476 O   0  0  0  0  0  0  0  0  0  0  0  0
   37.4416  -14.9329   27.0945 C   0  0  0  0  0  0  0  0  0  0  0  0
   36.7848  -13.6962   27.0745 C   0  0  0  0  0  0  0  0  0  0  0  0
   35.2168  -14.5179   28.7140 C   0  0  0  0  0  0  0  0  0  0  0  0
   35.8551  -15.7586   28.7195 C   0  0  0  0  0  0  0  0  0  0  0  0
   33.8375  -14.2632   29.7146 Cl  0  0  0  0  0  0  0  0  0  0  0  0
   38.5942  -15.0960   26.3031 N   0  3  0  0  0  0  0  0  0  0  0  0
   38.7169  -14.9683   24.9467 C   0  0  0  0  0  0  0  0  0  0  0  0
   39.9434  -15.2841   24.5997 N   0  0  0  0  0  0  0  0  0  0  0  0
   40.5885  -15.6107   25.7663 N   0  0  0  0  0  0  0  0  0  0  0  0
   39.7681  -15.5273   26.8016 N   0  0  0  0  0  0  0  0  0  0  0  0
   46.9121  -21.9273   31.6848 C   0  0  0  0  0  0  0  0  0  0  0  0
   47.0164  -21.0247   30.6334 C   0  0  0  0  0  0  0  0  0  0  0  0
   48.3466  -20.7021   30.5729 N   0  3  0  0  0  0  0  0  0  0  0  0
   49.1092  -21.3207   31.4823 N   0  0  0  0  0  0  0  0  0  0  0  0
   48.2445  -22.0748   32.1587 C   0  0  0  0  0  0  0  0  0  0  0  0
   48.6256  -22.8903   33.1475 N   0  0  0  0  0  0  0  0  0  0  0  0
   45.5097  -23.1407   32.8235 H   0  0  0  0  0  0  0  0  0  0  0  0
   46.0673  -19.8889   29.0604 H   0  0  0  0  0  0  0  0  0  0  0  0
   43.5695  -22.5062   31.4207 H   0  0  0  0  0  0  0  0  0  0  0  0
   37.9600  -17.6289   26.8946 H   0  0  0  0  0  0  0  0  0  0  0  0
   36.8695  -18.1249   28.1666 H   0  0  0  0  0  0  0  0  0  0  0  0
   35.1952  -12.5092   27.9285 H   0  0  0  0  0  0  0  0  0  0  0  0
   40.9650  -23.8493   26.3713 H   0  0  0  0  0  0  0  0  0  0  0  0
   39.1912  -23.2647   30.2715 H   0  0  0  0  0  0  0  0  0  0  0  0
   40.3068  -25.2953   31.0753 H   0  0  0  0  0  0  0  0  0  0  0  0
   41.7543  -26.6149   29.5528 H   0  0  0  0  0  0  0  0  0  0  0  0
   42.0467  -25.9045   27.1955 H   0  0  0  0  0  0  0  0  0  0  0  0
   38.3572  -22.1000   27.8374 H   0  0  0  0  0  0  0  0  0  0  0  0
   39.7264  -21.8628   26.7726 H   0  0  0  0  0  0  0  0  0  0  0  0
   39.6582  -21.0890   29.7498 H   0  0  0  0  0  0  0  0  0  0  0  0
   39.1562  -19.4090   27.3881 H   0  0  0  0  0  0  0  0  0  0  0  0
   41.8656  -20.4370   26.6203 H   0  0  0  0  0  0  0  0  0  0  0  0
   38.8515  -16.6826   29.4742 H   0  0  0  0  0  0  0  0  0  0  0  0
   37.1517  -12.8633   26.4734 H   0  0  0  0  0  0  0  0  0  0  0  0
   35.4694  -16.5542   29.3550 H   0  0  0  0  0  0  0  0  0  0  0  0
   37.8985  -14.7272   24.2857 H   0  0  0  0  0  0  0  0  0  0  0  0
   48.7970  -20.0865   29.9047 H   0  0  0  0  0  0  0  0  0  0  0  0
   49.5841  -22.8297   33.4719 H   0  0  0  0  0  0  0  0  0  0  0  0
   47.9709  -23.3178   33.7885 H   0  0  0  0  0  0  0  0  0  0  0  0
  1  2  1  0  0  0  0
  1 21  1  0  0  0  0
  2  5  1  0  0  0  0
  2 10  2  0  0  0  0
  3  6  2  0  0  0  0
  3 36  1  0  0  0  0
  3 42  1  0  0  0  0
  4  5  2  0  0  0  0
  4 37  1  0  0  0  0
  4 43  1  0  0  0  0
  5  6  1  0  0  0  0
  6 44  1  0  0  0  0
  7 20  1  0  0  0  0
  7 24  1  0  0  0  0
  7 25  2  0  0  0  0
  8  9  1  0  0  0  0
  8 24  1  0  0  0  0
  8 45  1  0  0  0  0
  8 46  1  0  0  0  0
  9 26  2  0  0  0  0
  9 29  1  0  0  0  0
 10 22  1  0  0  0  0
 10 23  1  0  0  0  0
 11 27  2  0  0  0  0
 11 28  1  0  0  0  0
 11 47  1  0  0  0  0
 12 13  2  0  0  0  0
 12 17  1  0  0  0  0
 12 48  1  0  0  0  0
 13 14  1  0  0  0  0
 13 18  1  0  0  0  0
 14 15  2  0  0  0  0
 14 49  1  0  0  0  0
 15 16  1  0  0  0  0
 15 50  1  0  0  0  0
 16 17  2  0  0  0  0
 16 51  1  0  0  0  0
 17 52  1  0  0  0  0
 18 19  1  0  0  0  0
 18 53  1  0  0  0  0
 18 54  1  0  0  0  0
 19 20  1  0  0  0  0
 19 21  1  0  0  0  0
 19 55  1  1  0  0  0
 20 56  1  0  0  0  0
 21 22  2  0  0  0  0
 22 57  1  0  0  0  0
 24 58  1  0  0  0  0
 26 27  1  0  0  0  0
 26 31  1  0  0  0  0
 27 59  1  0  0  0  0
 28 29  2  0  0  0  0
 28 30  1  0  0  0  0
 29 60  1  0  0  0  0
 31 32  2  0  0  0  0
 31 35  1  0  0  0  0
 32 33  1  0  0  0  0
 32 61  1  0  0  0  0
 33 34  1  0  0  0  0
 34 35  2  0  0  0  0
 36 37  1  0  0  0  0
 36 40  2  0  0  0  0
 37 38  2  0  0  0  0
 38 39  1  0  0  0  0
 38 62  1  0  0  0  0
 39 40  1  0  0  0  0
 40 41  1  0  0  0  0
 41 63  1  0  0  0  0
 41 64  1  0  0  0  0
M  CHG  3  22   1  31   1  38   1
M  END
$$$$
