3ZA
 OpenBabel04111919273D

 32 31  0  0  1  0  0  0  0  0999 V2000
   19.5266   12.1509   23.4177 O   0  0  0  0  0  0  0  0  0  0  0  0
   19.2822   14.7797   22.3824 C   0  0  0  0  0  0  0  0  0  0  0  0
   21.7923   14.6343   22.9593 C   0  0  1  0  0  0  0  0  0  0  0  0
   23.0432   12.5760   27.1278 O   0  0  0  0  0  0  0  0  0  0  0  0
   23.4999   14.8122   26.9264 O   0  0  0  0  0  0  0  0  0  0  0  0
   23.0852   15.3081   22.4421 C   0  0  0  0  0  0  0  0  0  0  0  0
   19.2615   13.5559   21.4749 C   0  0  0  0  0  0  0  0  0  0  0  0
   22.8703   13.5056   24.9856 C   0  0  2  0  0  0  0  0  0  0  0  0
   21.7693   14.4479   24.4867 C   0  0  0  0  0  0  0  0  0  0  0  0
   20.6313   15.4955   22.4322 C   0  0  0  0  0  0  0  0  0  0  0  0
   22.4524   12.0690   24.7005 N   0  3  0  0  0  0  0  0  0  0  0  0
   23.1786   13.6786   26.5086 C   0  0  0  0  0  0  0  0  0  0  0  0
   23.3815   14.9865   21.2502 O   0  0  0  0  0  0  0  0  0  0  0  0
   23.7155   16.0159   23.2652 O   0  0  0  0  0  0  0  0  0  0  0  0
   19.3455   13.6615   20.2541 O   0  0  0  0  0  0  0  0  0  0  0  0
   19.0194   12.3323   22.1037 N   0  0  0  0  0  0  0  0  0  0  0  0
   19.1608   11.1125   21.3401 C   0  0  0  0  0  0  0  0  0  0  0  0
   18.9523   12.7262   23.9586 H   0  0  0  0  0  0  0  0  0  0  0  0
   18.9440   14.5443   23.3930 H   0  0  0  0  0  0  0  0  0  0  0  0
   18.5255   15.4684   21.9925 H   0  0  0  0  0  0  0  0  0  0  0  0
   21.7462   13.6477   22.4825 H   0  0  0  0  0  0  0  0  0  0  0  0
   23.8019   13.6386   24.4288 H   0  0  0  0  0  0  0  0  0  0  0  0
   20.7903   14.0642   24.7971 H   0  0  0  0  0  0  0  0  0  0  0  0
   21.8739   15.4221   24.9793 H   0  0  0  0  0  0  0  0  0  0  0  0
   20.5168   16.3838   23.0689 H   0  0  0  0  0  0  0  0  0  0  0  0
   20.8536   15.8645   21.4243 H   0  0  0  0  0  0  0  0  0  0  0  0
   23.1884   11.4797   25.0971 H   0  0  0  0  0  0  0  0  0  0  0  0
   21.6257   11.8587   25.2603 H   0  0  0  0  0  0  0  0  0  0  0  0
   18.8168   11.2590   20.3101 H   0  0  0  0  0  0  0  0  0  0  0  0
   18.5742   10.3210   21.8088 H   0  0  0  0  0  0  0  0  0  0  0  0
   20.2185   10.8296   21.3221 H   0  0  0  0  0  0  0  0  0  0  0  0
   22.2974   11.8731   23.7049 H   0  0  0  0  0  0  0  0  0  0  0  0
  1 16  1  0  0  0  0
  1 18  1  0  0  0  0
  2  7  1  0  0  0  0
  2 10  1  0  0  0  0
  2 19  1  0  0  0  0
  2 20  1  0  0  0  0
  3  6  1  0  0  0  0
  3  9  1  0  0  0  0
  3 10  1  0  0  0  0
  3 21  1  6  0  0  0
  4 12  2  0  0  0  0
  5 12  1  0  0  0  0
  6 13  2  0  0  0  0
  6 14  1  0  0  0  0
  7 15  2  0  0  0  0
  7 16  1  0  0  0  0
  8  9  1  0  0  0  0
  8 11  1  0  0  0  0
  8 12  1  0  0  0  0
  8 22  1  6  0  0  0
  9 23  1  0  0  0  0
  9 24  1  0  0  0  0
 10 25  1  0  0  0  0
 10 26  1  0  0  0  0
 11 27  1  0  0  0  0
 11 28  1  0  0  0  0
 11 32  1  0  0  0  0
 16 17  1  0  0  0  0
 17 29  1  0  0  0  0
 17 30  1  0  0  0  0
 17 31  1  0  0  0  0
M  CHG  1  11   1
M  END
$$$$
