40F
 OpenBabel04111922293D

 23 24  0  0  1  0  0  0  0  0999 V2000
   52.5322  -27.2211    7.2474 O   0  0  0  0  0  0  0  0  0  0  0  0
   52.1430  -24.7421    8.7606 C   0  0  0  0  0  0  0  0  0  0  0  0
   47.6341  -25.2035   11.1190 O   0  0  0  0  0  0  0  0  0  0  0  0
   52.2958  -25.5865   10.0425 C   0  0  0  0  0  0  0  0  0  0  0  0
   51.0312  -25.4232    7.9193 C   0  0  1  0  0  0  0  0  0  0  0  0
   51.0100  -26.3406   10.1704 C   0  0  1  0  0  0  0  0  0  0  0  0
   48.4963  -26.0911   10.8449 C   0  0  0  0  0  0  0  0  0  0  0  0
   49.7174  -25.5744   10.1816 C   0  0  2  0  0  0  0  0  0  0  0  0
   50.2167  -26.2009    8.9085 C   0  0  1  0  0  0  0  0  0  0  0  0
   48.4021  -27.3377   11.0652 O   0  0  0  0  0  0  0  0  0  0  0  0
   50.1871  -24.3321    7.2728 N   0  3  0  0  0  0  0  0  0  0  0  0
   51.6920  -26.3758    6.8492 C   0  0  0  0  0  0  0  0  0  0  0  0
   51.2759  -26.0969    5.6697 O   0  0  0  0  0  0  0  0  0  0  0  0
   53.0957  -24.6975    8.2246 H   0  0  0  0  0  0  0  0  0  0  0  0
   51.8841  -23.7123    9.0454 H   0  0  0  0  0  0  0  0  0  0  0  0
   52.4478  -24.9499   10.9208 H   0  0  0  0  0  0  0  0  0  0  0  0
   53.1554  -26.2596    9.9595 H   0  0  0  0  0  0  0  0  0  0  0  0
   51.0906  -27.2802   10.6979 H   0  0  0  0  0  0  0  0  0  0  0  0
   49.7891  -24.4928   10.2450 H   0  0  0  0  0  0  0  0  0  0  0  0
   49.6887  -27.0441    8.4701 H   0  0  0  0  0  0  0  0  0  0  0  0
   49.4912  -24.8274    6.6945 H   0  0  0  0  0  0  0  0  0  0  0  0
   49.7257  -23.7314    7.9526 H   0  0  0  0  0  0  0  0  0  0  0  0
   50.7707  -23.8291    6.5987 H   0  0  0  0  0  0  0  0  0  0  0  0
  1 12  2  0  0  0  0
  2  4  1  0  0  0  0
  2  5  1  0  0  0  0
  2 14  1  0  0  0  0
  2 15  1  0  0  0  0
  3  7  2  0  0  0  0
  4  6  1  0  0  0  0
  4 16  1  0  0  0  0
  4 17  1  0  0  0  0
  5  9  1  0  0  0  0
  5 11  1  6  0  0  0
  5 12  1  0  0  0  0
  6  8  1  0  0  0  0
  6  9  1  0  0  0  0
  6 18  1  1  0  0  0
  7  8  1  0  0  0  0
  7 10  1  0  0  0  0
  8  9  1  0  0  0  0
  8 19  1  1  0  0  0
  9 20  1  6  0  0  0
 11 21  1  0  0  0  0
 11 22  1  0  0  0  0
 11 23  1  0  0  0  0
 12 13  1  0  0  0  0
M  CHG  1  11   1
M  END
$$$$
