41P
 OpenBabel04111922323D

 70 73  0  0  0  0  0  0  0  0999 V2000
    2.8916   -2.9513  -21.5110 C   0  0  0  0  0  0  0  0  0  0  0  0
    1.7260   -3.6530  -20.7646 C   0  0  0  0  0  0  0  0  0  0  0  0
    5.0342   -1.7860  -29.7652 C   0  0  0  0  0  0  0  0  0  0  0  0
    5.5529   -1.6774  -28.4259 O   0  0  0  0  0  0  0  0  0  0  0  0
    4.6110   -1.7389  -27.4191 C   0  0  0  0  0  0  0  0  0  0  0  0
    4.2314   -2.9612  -26.8372 C   0  0  0  0  0  0  0  0  0  0  0  0
    3.3446   -3.0135  -25.7219 C   0  0  0  0  0  0  0  0  0  0  0  0
    4.1423   -0.5576  -26.8338 C   0  0  0  0  0  0  0  0  0  0  0  0
    3.2511   -0.6064  -25.7157 C   0  0  0  0  0  0  0  0  0  0  0  0
    2.8503   -1.8348  -25.1483 C   0  0  0  0  0  0  0  0  0  0  0  0
    1.6119   -1.9203  -23.7656 S   0  0  0  0  0  0  0  0  0  0  0  0
    2.5674   -1.7798  -22.3530 N   0  0  0  0  0  0  0  0  0  0  0  0
    2.0422   -4.7133  -19.9566 N   0  0  0  0  0  0  0  0  0  0  0  0
    0.5678   -3.2892  -20.8452 O   0  0  0  0  0  0  0  0  0  0  0  0
    3.1261   -0.4908  -22.0076 C   0  0  0  0  0  0  0  0  0  0  0  0
    4.4432   -0.1961  -22.3872 C   0  0  0  0  0  0  0  0  0  0  0  0
    5.0321    1.0293  -22.0449 C   0  0  0  0  0  0  0  0  0  0  0  0
    4.3095    1.9696  -21.2992 C   0  0  0  0  0  0  0  0  0  0  0  0
    4.8813    3.2604  -21.0158 N   0  0  0  0  0  0  0  0  0  0  0  0
    5.9109    3.4470  -19.9774 C   0  0  0  0  0  0  0  0  0  0  0  0
    5.6084    2.8674  -18.6174 C   0  0  0  0  0  0  0  0  0  0  0  0
    5.3677    3.7011  -17.5601 N   0  0  0  0  0  0  0  0  0  0  0  0
    5.6482    1.6473  -18.4201 O   0  0  0  0  0  0  0  0  0  0  0  0
    4.5327    4.5214  -22.0875 S   0  0  0  0  0  0  0  0  0  0  0  0
    5.5166    4.0988  -23.5439 C   0  0  0  0  0  0  0  0  0  0  0  0
    6.7888    4.6542  -23.6996 C   0  0  0  0  0  0  0  0  0  0  0  0
    7.5467    4.3623  -24.8461 C   0  0  0  0  0  0  0  0  0  0  0  0
    7.0471    3.5082  -25.8290 C   0  0  0  0  0  0  0  0  0  0  0  0
    7.7273    3.2654  -26.9919 O   0  0  0  0  0  0  0  0  0  0  0  0
    8.9476    2.5476  -26.7942 C   0  0  0  0  0  0  0  0  0  0  0  0
    5.7714    2.9645  -25.6853 C   0  0  0  0  0  0  0  0  0  0  0  0
    5.0076    3.2534  -24.5422 C   0  0  0  0  0  0  0  0  0  0  0  0
    5.0403    5.7439  -21.5253 O   0  0  0  0  0  0  0  0  0  0  0  0
    3.1299    4.4340  -22.4834 O   0  0  0  0  0  0  0  0  0  0  0  0
    2.9818    1.6965  -20.9036 C   0  0  0  0  0  0  0  0  0  0  0  0
    2.3902    0.4496  -21.2505 C   0  0  0  0  0  0  0  0  0  0  0  0
    1.0767    0.1895  -20.8248 C   0  0  0  0  0  0  0  0  0  0  0  0
    0.3498    1.1308  -20.0968 C   0  0  0  0  0  0  0  0  0  0  0  0
    0.9200    2.3549  -19.7707 C   0  0  0  0  0  0  0  0  0  0  0  0
    2.2234    2.6321  -20.1654 C   0  0  0  0  0  0  0  0  0  0  0  0
    1.0415   -3.2587  -23.8072 O   0  0  0  0  0  0  0  0  0  0  0  0
    0.7685   -0.7628  -23.8953 O   0  0  0  0  0  0  0  0  0  0  0  0
    3.3805   -3.7096  -22.1305 H   0  0  0  0  0  0  0  0  0  0  0  0
    3.5867   -2.6293  -20.7260 H   0  0  0  0  0  0  0  0  0  0  0  0
    5.8720   -1.7413  -30.4837 H   0  0  0  0  0  0  0  0  0  0  0  0
    4.3627   -0.9564  -30.0111 H   0  0  0  0  0  0  0  0  0  0  0  0
    4.5314   -2.7457  -29.9230 H   0  0  0  0  0  0  0  0  0  0  0  0
    4.6164   -3.8956  -27.2442 H   0  0  0  0  0  0  0  0  0  0  0  0
    3.0373   -3.9758  -25.3109 H   0  0  0  0  0  0  0  0  0  0  0  0
    4.4586    0.3972  -27.2534 H   0  0  0  0  0  0  0  0  0  0  0  0
    2.8806    0.3326  -25.3007 H   0  0  0  0  0  0  0  0  0  0  0  0
    1.2673   -5.1785  -19.4618 H   0  0  0  0  0  0  0  0  0  0  0  0
    2.9780   -5.0617  -19.8122 H   0  0  0  0  0  0  0  0  0  0  0  0
    5.0122   -0.9235  -22.9593 H   0  0  0  0  0  0  0  0  0  0  0  0
    6.0411    1.2629  -22.3759 H   0  0  0  0  0  0  0  0  0  0  0  0
    6.0649    4.5283  -19.8010 H   0  0  0  0  0  0  0  0  0  0  0  0
    6.8661    3.0283  -20.2958 H   0  0  0  0  0  0  0  0  0  0  0  0
    5.1840    3.3146  -16.6439 H   0  0  0  0  0  0  0  0  0  0  0  0
    5.3319    4.7144  -17.6548 H   0  0  0  0  0  0  0  0  0  0  0  0
    7.2004    5.3128  -22.9408 H   0  0  0  0  0  0  0  0  0  0  0  0
    8.5224    4.8214  -24.9760 H   0  0  0  0  0  0  0  0  0  0  0  0
    9.4201    2.4222  -27.7752 H   0  0  0  0  0  0  0  0  0  0  0  0
    8.7501    1.5509  -26.3845 H   0  0  0  0  0  0  0  0  0  0  0  0
    9.6507    3.0886  -26.1515 H   0  0  0  0  0  0  0  0  0  0  0  0
    5.3745    2.3205  -26.4646 H   0  0  0  0  0  0  0  0  0  0  0  0
    4.0250    2.7977  -24.4360 H   0  0  0  0  0  0  0  0  0  0  0  0
    0.6023   -0.7587  -21.0740 H   0  0  0  0  0  0  0  0  0  0  0  0
   -0.6680    0.8970  -19.7959 H   0  0  0  0  0  0  0  0  0  0  0  0
    0.3613    3.0977  -19.2092 H   0  0  0  0  0  0  0  0  0  0  0  0
    2.6443    3.6028  -19.9040 H   0  0  0  0  0  0  0  0  0  0  0  0
  1  2  1  0  0  0  0
  1 12  1  0  0  0  0
  1 43  1  0  0  0  0
  1 44  1  0  0  0  0
  2 13  1  0  0  0  0
  2 14  2  0  0  0  0
  3  4  1  0  0  0  0
  3 45  1  0  0  0  0
  3 46  1  0  0  0  0
  3 47  1  0  0  0  0
  4  5  1  0  0  0  0
  5  6  2  0  0  0  0
  5  8  1  0  0  0  0
  6  7  1  0  0  0  0
  6 48  1  0  0  0  0
  7 10  2  0  0  0  0
  7 49  1  0  0  0  0
  8  9  2  0  0  0  0
  8 50  1  0  0  0  0
  9 10  1  0  0  0  0
  9 51  1  0  0  0  0
 10 11  1  0  0  0  0
 11 12  1  0  0  0  0
 11 41  2  0  0  0  0
 11 42  2  0  0  0  0
 12 15  1  0  0  0  0
 13 52  1  0  0  0  0
 13 53  1  0  0  0  0
 15 16  2  0  0  0  0
 15 36  1  0  0  0  0
 16 17  1  0  0  0  0
 16 54  1  0  0  0  0
 17 18  2  0  0  0  0
 17 55  1  0  0  0  0
 18 19  1  0  0  0  0
 18 35  1  0  0  0  0
 19 20  1  0  0  0  0
 19 24  1  0  0  0  0
 20 21  1  0  0  0  0
 20 56  1  0  0  0  0
 20 57  1  0  0  0  0
 21 22  1  0  0  0  0
 21 23  2  0  0  0  0
 22 58  1  0  0  0  0
 22 59  1  0  0  0  0
 24 25  1  0  0  0  0
 24 33  2  0  0  0  0
 24 34  2  0  0  0  0
 25 26  2  0  0  0  0
 25 32  1  0  0  0  0
 26 27  1  0  0  0  0
 26 60  1  0  0  0  0
 27 28  2  0  0  0  0
 27 61  1  0  0  0  0
 28 29  1  0  0  0  0
 28 31  1  0  0  0  0
 29 30  1  0  0  0  0
 30 62  1  0  0  0  0
 30 63  1  0  0  0  0
 30 64  1  0  0  0  0
 31 32  2  0  0  0  0
 31 65  1  0  0  0  0
 32 66  1  0  0  0  0
 35 36  2  0  0  0  0
 35 40  1  0  0  0  0
 36 37  1  0  0  0  0
 37 38  2  0  0  0  0
 37 67  1  0  0  0  0
 38 39  1  0  0  0  0
 38 68  1  0  0  0  0
 39 40  2  0  0  0  0
 39 69  1  0  0  0  0
 40 70  1  0  0  0  0
M  END
$$$$
