43L
 OpenBabel04111922333D

 36 39  0  0  1  0  0  0  0  0999 V2000
   15.1598   -0.6285   30.6094 C   0  0  0  0  0  0  0  0  0  0  0  0
   15.9497   -0.3413   31.7206 C   0  0  0  0  0  0  0  0  0  0  0  0
   16.8755   -1.7411   32.5900 Br  0  0  0  0  0  0  0  0  0  0  0  0
   16.0615    0.9639   32.1907 C   0  0  0  0  0  0  0  0  0  0  0  0
   15.3733    1.9907   31.5454 C   0  0  0  0  0  0  0  0  0  0  0  0
   14.5820    1.7100   30.4284 C   0  0  0  0  0  0  0  0  0  0  0  0
   14.4728    0.3976   29.9396 C   0  0  0  0  0  0  0  0  0  0  0  0
   13.6058    0.0478   28.7428 C   0  0  1  0  0  0  0  0  0  0  0  0
   12.1152    0.0485   29.1400 C   0  0  0  0  0  0  0  0  0  0  0  0
   13.8402    0.9155   27.5970 N   0  3  0  0  0  0  0  0  0  0  0  0
   15.0440    1.1887   27.0759 N   0  0  0  0  0  0  0  0  0  0  0  0
   14.7821    1.9508   26.0197 N   0  0  0  0  0  0  0  0  0  0  0  0
   13.4201    2.1068   25.8375 N   0  0  0  0  0  0  0  0  0  0  0  0
   12.8490    1.4266   26.8002 C   0  0  0  0  0  0  0  0  0  0  0  0
   11.5494    1.1910   27.0892 N   0  0  0  0  0  0  0  0  0  0  0  0
   11.2503   -0.0084   27.8713 C   0  0  2  0  0  0  0  0  0  0  0  0
    9.7778   -0.1035   28.2174 C   0  0  0  0  0  0  0  0  0  0  0  0
    9.0172    1.0331   28.5158 C   0  0  0  0  0  0  0  0  0  0  0  0
    7.6651    0.9134   28.8448 C   0  0  0  0  0  0  0  0  0  0  0  0
    6.6605    2.4701   29.2232 Br  0  0  0  0  0  0  0  0  0  0  0  0
    7.0580   -0.3343   28.9037 C   0  0  0  0  0  0  0  0  0  0  0  0
    7.8069   -1.4764   28.6272 C   0  0  0  0  0  0  0  0  0  0  0  0
    9.1593   -1.3662   28.2901 C   0  0  0  0  0  0  0  0  0  0  0  0
   15.0822   -1.6563   30.2590 H   0  0  0  0  0  0  0  0  0  0  0  0
   16.6829    1.1926   33.0527 H   0  0  0  0  0  0  0  0  0  0  0  0
   15.4597    3.0124   31.9074 H   0  0  0  0  0  0  0  0  0  0  0  0
   14.0614    2.5348   29.9404 H   0  0  0  0  0  0  0  0  0  0  0  0
   13.8692   -0.9559   28.3822 H   0  0  0  0  0  0  0  0  0  0  0  0
   11.8725    0.9654   29.6987 H   0  0  0  0  0  0  0  0  0  0  0  0
   11.8992   -0.7906   29.8137 H   0  0  0  0  0  0  0  0  0  0  0  0
   10.8418    1.5131   26.4349 H   0  0  0  0  0  0  0  0  0  0  0  0
   11.5162   -0.8892   27.2738 H   0  0  0  0  0  0  0  0  0  0  0  0
    9.4777    2.0266   28.4909 H   0  0  0  0  0  0  0  0  0  0  0  0
    6.0061   -0.4308   29.1590 H   0  0  0  0  0  0  0  0  0  0  0  0
    7.3368   -2.4567   28.6754 H   0  0  0  0  0  0  0  0  0  0  0  0
    9.7219   -2.2676   28.0868 H   0  0  0  0  0  0  0  0  0  0  0  0
  1  2  2  0  0  0  0
  1  7  1  0  0  0  0
  1 24  1  0  0  0  0
  2  3  1  0  0  0  0
  2  4  1  0  0  0  0
  4  5  2  0  0  0  0
  4 25  1  0  0  0  0
  5  6  1  0  0  0  0
  5 26  1  0  0  0  0
  6  7  2  0  0  0  0
  6 27  1  0  0  0  0
  7  8  1  0  0  0  0
  8  9  1  0  0  0  0
  8 10  1  0  0  0  0
  8 28  1  6  0  0  0
  9 16  1  0  0  0  0
  9 29  1  0  0  0  0
  9 30  1  0  0  0  0
 10 11  1  0  0  0  0
 10 14  2  0  0  0  0
 11 12  1  0  0  0  0
 12 13  2  0  0  0  0
 13 14  1  0  0  0  0
 14 15  1  0  0  0  0
 15 16  1  0  0  0  0
 15 31  1  0  0  0  0
 16 17  1  0  0  0  0
 16 32  1  6  0  0  0
 17 18  2  0  0  0  0
 17 23  1  0  0  0  0
 18 19  1  0  0  0  0
 18 33  1  0  0  0  0
 19 20  1  0  0  0  0
 19 21  2  0  0  0  0
 21 22  1  0  0  0  0
 21 34  1  0  0  0  0
 22 23  2  0  0  0  0
 22 35  1  0  0  0  0
 23 36  1  0  0  0  0
M  CHG  1  10   1
M  END
$$$$
