43S
 OpenBabel04111922373D

 28 31  0  0  0  0  0  0  0  0999 V2000
   -7.0765   15.8748    0.0261 C   0  0  0  0  0  0  0  0  0  0  0  0
   -8.4593   15.4346    0.1944 C   0  0  0  0  0  0  0  0  0  0  0  0
   -9.1690   15.4949    1.4080 C   0  0  0  0  0  0  0  0  0  0  0  0
  -10.5104   14.4721   -0.7540 C   0  0  0  0  0  0  0  0  0  0  0  0
   -9.6750   15.7775    3.5329 C   0  0  0  0  0  0  0  0  0  0  0  0
  -10.8430   15.3953    2.9163 C   0  0  0  0  0  0  0  0  0  0  0  0
  -10.5092   15.1369    1.5581 C   0  0  0  0  0  0  0  0  0  0  0  0
  -11.2032   14.6206    0.4515 C   0  0  0  0  0  0  0  0  0  0  0  0
   -9.1876   14.8870   -0.8849 C   0  0  0  0  0  0  0  0  0  0  0  0
   -4.4399   16.6727   -0.5215 N   0  0  0  0  0  0  0  0  0  0  0  0
   -4.8068   18.3622    1.1739 N   0  0  0  0  0  0  0  0  0  0  0  0
   -6.4927   16.9325    0.6896 C   0  0  0  0  0  0  0  0  0  0  0  0
   -6.9014   17.8194    1.6496 N   0  3  0  0  0  0  0  0  0  0  0  0
  -11.3722   13.6575   -2.2282 Br  0  0  0  0  0  0  0  0  0  0  0  0
   -8.6734   15.8851    2.6242 O   0  0  0  0  0  0  0  0  0  0  0  0
   -6.3291   15.2727   -0.9306 N   0  0  0  0  0  0  0  0  0  0  0  0
   -5.0696   15.6916   -1.1563 C   0  0  0  0  0  0  0  0  0  0  0  0
   -4.3871   15.0561   -2.1597 N   0  0  0  0  0  0  0  0  0  0  0  0
   -5.1999   17.2938    0.4039 C   0  0  0  0  0  0  0  0  0  0  0  0
   -5.8559   18.6499    1.9137 C   0  0  0  0  0  0  0  0  0  0  0  0
   -9.4112   15.9995    4.5590 H   0  0  0  0  0  0  0  0  0  0  0  0
  -11.8012   15.2620    3.3965 H   0  0  0  0  0  0  0  0  0  0  0  0
  -12.2390   14.3060    0.5466 H   0  0  0  0  0  0  0  0  0  0  0  0
   -8.6898   14.7831   -1.8499 H   0  0  0  0  0  0  0  0  0  0  0  0
   -7.8028   17.8200    2.1002 H   0  0  0  0  0  0  0  0  0  0  0  0
   -3.4007   15.2418   -2.2273 H   0  0  0  0  0  0  0  0  0  0  0  0
   -4.8096   14.2263   -2.5515 H   0  0  0  0  0  0  0  0  0  0  0  0
   -5.9147   19.4398    2.6518 H   0  0  0  0  0  0  0  0  0  0  0  0
  1  2  1  0  0  0  0
  1 12  2  0  0  0  0
  1 16  1  0  0  0  0
  2  3  2  0  0  0  0
  2  9  1  0  0  0  0
  3  7  1  0  0  0  0
  3 15  1  0  0  0  0
  4  8  1  0  0  0  0
  4  9  2  0  0  0  0
  4 14  1  0  0  0  0
  5  6  2  0  0  0  0
  5 15  1  0  0  0  0
  5 21  1  0  0  0  0
  6  7  1  0  0  0  0
  6 22  1  0  0  0  0
  7  8  2  0  0  0  0
  8 23  1  0  0  0  0
  9 24  1  0  0  0  0
 10 17  1  0  0  0  0
 10 19  2  0  0  0  0
 11 19  1  0  0  0  0
 11 20  1  0  0  0  0
 12 13  1  0  0  0  0
 12 19  1  0  0  0  0
 13 20  2  0  0  0  0
 13 25  1  0  0  0  0
 16 17  2  0  0  0  0
 17 18  1  0  0  0  0
 18 26  1  0  0  0  0
 18 27  1  0  0  0  0
 20 28  1  0  0  0  0
M  CHG  1  13   1
M  END
$$$$
