44K
 OpenBabel04111922343D

 67 71  0  0  1  0  0  0  0  0999 V2000
   -2.2511   -9.9833   13.7962 C   0  0  1  0  0  0  0  0  0  0  0  0
   -1.0201   -9.2868   13.4851 N   0  0  0  0  0  0  0  0  0  0  0  0
   -0.0449   -9.5148   14.4189 C   0  0  0  0  0  0  0  0  0  0  0  0
    1.0350   -8.9611   14.4630 O   0  0  0  0  0  0  0  0  0  0  0  0
   -0.5042  -10.4794   15.2782 N   0  0  0  0  0  0  0  0  0  0  0  0
   -1.9315  -10.6829   15.1333 C   0  0  1  0  0  0  0  0  0  0  0  0
   -2.6839  -10.0266   16.2902 C   0  0  0  0  0  0  0  0  0  0  0  0
   -3.4495   -8.5098   15.6673 S   0  0  0  0  0  0  0  0  0  0  0  0
   -3.4566   -9.0523   13.9377 C   0  0  1  0  0  0  0  0  0  0  0  0
   -3.4178   -7.8649   12.9670 C   0  0  0  0  0  0  0  0  0  0  0  0
   -3.6978   -8.3418   11.5389 C   0  0  0  0  0  0  0  0  0  0  0  0
   -3.9950   -7.1690   10.6161 C   0  0  0  0  0  0  0  0  0  0  0  0
   -4.1309   -7.6179    9.1680 C   0  0  0  0  0  0  0  0  0  0  0  0
   -4.5782   -6.4508    8.3238 C   0  0  0  0  0  0  0  0  0  0  0  0
   -5.6787   -5.9360    8.4769 O   0  0  0  0  0  0  0  0  0  0  0  0
   -3.6344   -5.9667    7.4088 N   0  0  0  0  0  0  0  0  0  0  0  0
   -4.0303   -5.0093    6.1269 S   0  0  0  0  0  0  0  0  0  0  0  0
   -5.2927   -5.4457    5.5663 O   0  0  0  0  0  0  0  0  0  0  0  0
   -2.8475   -4.8909    5.3240 O   0  0  0  0  0  0  0  0  0  0  0  0
   -4.3073   -3.5629    6.8752 N   0  0  0  0  0  0  0  0  0  0  0  0
   -3.3102   -2.8752    7.6708 C   0  0  0  0  0  0  0  0  0  0  0  0
   -3.6624   -1.3808    7.7018 C   0  0  1  0  0  0  0  0  0  0  0  0
   -4.8637   -1.1287    8.6193 C   0  0  0  0  0  0  0  0  0  0  0  0
   -2.5260   -0.5275    8.2446 C   0  0  0  0  0  0  0  0  0  0  0  0
   -3.1553    0.5776    9.0724 C   0  0  0  0  0  0  0  0  0  0  0  0
   -4.5665    0.1202    9.4576 C   0  0  2  0  0  0  0  0  0  0  0  0
   -4.7205   -0.1515   10.8801 N   0  3  0  0  0  0  0  0  0  0  0  0
   -3.7114   -0.2707   11.8103 C   0  0  0  0  0  0  0  0  0  0  0  0
   -4.1548   -0.5429   13.0055 N   0  0  0  0  0  0  0  0  0  0  0  0
   -5.5144   -0.6399   12.8536 C   0  0  0  0  0  0  0  0  0  0  0  0
   -5.8966   -0.4037   11.5407 C   0  0  0  0  0  0  0  0  0  0  0  0
   -7.1485   -0.4447   11.0484 N   0  0  0  0  0  0  0  0  0  0  0  0
   -8.0320   -0.7588   12.0273 C   0  0  0  0  0  0  0  0  0  0  0  0
   -7.7948   -1.0035   13.3399 N   0  0  0  0  0  0  0  0  0  0  0  0
   -6.5182   -0.9421   13.7750 C   0  0  0  0  0  0  0  0  0  0  0  0
   -6.2231   -1.1888   15.1047 N   0  0  0  0  0  0  0  0  0  0  0  0
   -2.4169  -10.7099   12.9922 H   0  0  0  0  0  0  0  0  0  0  0  0
   -0.8601   -8.6302   12.7346 H   0  0  0  0  0  0  0  0  0  0  0  0
    0.0747  -10.7897   16.0481 H   0  0  0  0  0  0  0  0  0  0  0  0
   -2.1133  -11.7610   15.0942 H   0  0  0  0  0  0  0  0  0  0  0  0
   -2.0181   -9.7797   17.1238 H   0  0  0  0  0  0  0  0  0  0  0  0
   -3.4609  -10.6996   16.6660 H   0  0  0  0  0  0  0  0  0  0  0  0
   -4.3830   -9.6204   13.7877 H   0  0  0  0  0  0  0  0  0  0  0  0
   -2.4439   -7.3573   12.9870 H   0  0  0  0  0  0  0  0  0  0  0  0
   -4.1472   -7.1026   13.2596 H   0  0  0  0  0  0  0  0  0  0  0  0
   -4.5591   -9.0206   11.5435 H   0  0  0  0  0  0  0  0  0  0  0  0
   -2.8406   -8.9087   11.1557 H   0  0  0  0  0  0  0  0  0  0  0  0
   -3.2013   -6.4165   10.6917 H   0  0  0  0  0  0  0  0  0  0  0  0
   -4.9254   -6.6873   10.9430 H   0  0  0  0  0  0  0  0  0  0  0  0
   -4.8912   -8.4030    9.0732 H   0  0  0  0  0  0  0  0  0  0  0  0
   -3.1850   -8.0313    8.8007 H   0  0  0  0  0  0  0  0  0  0  0  0
   -2.6995   -6.3678    7.3458 H   0  0  0  0  0  0  0  0  0  0  0  0
   -5.1738   -3.1068    6.6146 H   0  0  0  0  0  0  0  0  0  0  0  0
   -2.3014   -3.0303    7.2764 H   0  0  0  0  0  0  0  0  0  0  0  0
   -3.3360   -3.2842    8.6891 H   0  0  0  0  0  0  0  0  0  0  0  0
   -3.8990   -1.0376    6.6853 H   0  0  0  0  0  0  0  0  0  0  0  0
   -5.0544   -1.9948    9.2638 H   0  0  0  0  0  0  0  0  0  0  0  0
   -5.7683   -0.9927    8.0128 H   0  0  0  0  0  0  0  0  0  0  0  0
   -1.9436   -0.0857    7.4288 H   0  0  0  0  0  0  0  0  0  0  0  0
   -1.8359   -1.1209    8.8544 H   0  0  0  0  0  0  0  0  0  0  0  0
   -3.1868    1.5255    8.5285 H   0  0  0  0  0  0  0  0  0  0  0  0
   -2.5041    0.7852    9.9212 H   0  0  0  0  0  0  0  0  0  0  0  0
   -5.2861    0.9149    9.2113 H   0  0  0  0  0  0  0  0  0  0  0  0
   -2.6614   -0.1478   11.5876 H   0  0  0  0  0  0  0  0  0  0  0  0
   -9.0736   -0.8236   11.7219 H   0  0  0  0  0  0  0  0  0  0  0  0
   -6.9813   -1.3965   15.7287 H   0  0  0  0  0  0  0  0  0  0  0  0
   -5.2711   -1.1417   15.4056 H   0  0  0  0  0  0  0  0  0  0  0  0
  1  2  1  0  0  0  0
  1  6  1  0  0  0  0
  1  9  1  0  0  0  0
  1 37  1  6  0  0  0
  2  3  1  0  0  0  0
  2 38  1  0  0  0  0
  3  4  2  0  0  0  0
  3  5  1  0  0  0  0
  5  6  1  0  0  0  0
  5 39  1  0  0  0  0
  6  7  1  0  0  0  0
  6 40  1  6  0  0  0
  7  8  1  0  0  0  0
  7 41  1  0  0  0  0
  7 42  1  0  0  0  0
  8  9  1  0  0  0  0
  9 10  1  0  0  0  0
  9 43  1  6  0  0  0
 10 11  1  0  0  0  0
 10 44  1  0  0  0  0
 10 45  1  0  0  0  0
 11 12  1  0  0  0  0
 11 46  1  0  0  0  0
 11 47  1  0  0  0  0
 12 13  1  0  0  0  0
 12 48  1  0  0  0  0
 12 49  1  0  0  0  0
 13 14  1  0  0  0  0
 13 50  1  0  0  0  0
 13 51  1  0  0  0  0
 14 15  2  0  0  0  0
 14 16  1  0  0  0  0
 16 17  1  0  0  0  0
 16 52  1  0  0  0  0
 17 18  2  0  0  0  0
 17 19  2  0  0  0  0
 17 20  1  0  0  0  0
 20 21  1  0  0  0  0
 20 53  1  0  0  0  0
 21 22  1  0  0  0  0
 21 54  1  0  0  0  0
 21 55  1  0  0  0  0
 22 23  1  0  0  0  0
 22 24  1  0  0  0  0
 22 56  1  6  0  0  0
 23 26  1  0  0  0  0
 23 57  1  0  0  0  0
 23 58  1  0  0  0  0
 24 25  1  0  0  0  0
 24 59  1  0  0  0  0
 24 60  1  0  0  0  0
 25 26  1  0  0  0  0
 25 61  1  0  0  0  0
 25 62  1  0  0  0  0
 26 27  1  0  0  0  0
 26 63  1  6  0  0  0
 27 28  2  0  0  0  0
 27 31  1  0  0  0  0
 28 29  1  0  0  0  0
 28 64  1  0  0  0  0
 29 30  1  0  0  0  0
 30 31  2  0  0  0  0
 30 35  1  0  0  0  0
 31 32  1  0  0  0  0
 32 33  2  0  0  0  0
 33 34  1  0  0  0  0
 33 65  1  0  0  0  0
 34 35  2  0  0  0  0
 35 36  1  0  0  0  0
 36 66  1  0  0  0  0
 36 67  1  0  0  0  0
M  CHG  1  27   1
M  END
$$$$
