44L
 OpenBabel04111922343D

 66 70  0  0  1  0  0  0  0  0999 V2000
   -5.7893   -0.3056   11.4108 C   0  0  0  0  0  0  0  0  0  0  0  0
   -6.1951   -1.0672   14.9443 N   0  0  0  0  0  0  0  0  0  0  0  0
   -5.4032   -0.5453   12.7069 C   0  0  0  0  0  0  0  0  0  0  0  0
   -4.6184   -0.0725   10.7228 N   0  3  0  0  0  0  0  0  0  0  0  0
   -3.5817   -0.1960   11.6144 C   0  0  0  0  0  0  0  0  0  0  0  0
   -2.1614   -9.9107   13.7505 C   0  0  1  0  0  0  0  0  0  0  0  0
   -0.9369   -9.1943   13.4711 N   0  0  0  0  0  0  0  0  0  0  0  0
    0.0156   -9.3542   14.4606 C   0  0  0  0  0  0  0  0  0  0  0  0
    1.0707   -8.8155   14.5192 O   0  0  0  0  0  0  0  0  0  0  0  0
   -0.4735  -10.3054   15.3365 N   0  0  0  0  0  0  0  0  0  0  0  0
   -1.8559  -10.6321   15.0806 C   0  0  1  0  0  0  0  0  0  0  0  0
   -2.7314  -10.1093   16.2083 C   0  0  0  0  0  0  0  0  0  0  0  0
   -3.2882   -8.4822   15.6560 S   0  0  0  0  0  0  0  0  0  0  0  0
   -3.3735   -9.0002   13.9246 C   0  0  1  0  0  0  0  0  0  0  0  0
   -3.4367   -7.8099   12.9772 C   0  0  0  0  0  0  0  0  0  0  0  0
   -3.6525   -8.2923   11.5419 C   0  0  0  0  0  0  0  0  0  0  0  0
   -3.9349   -7.1333   10.5962 C   0  0  0  0  0  0  0  0  0  0  0  0
   -4.0842   -7.5877    9.1522 C   0  0  0  0  0  0  0  0  0  0  0  0
   -4.4984   -6.4135    8.2953 C   0  0  0  0  0  0  0  0  0  0  0  0
   -5.5724   -5.8506    8.4230 O   0  0  0  0  0  0  0  0  0  0  0  0
   -3.5490   -5.9528    7.3904 N   0  0  0  0  0  0  0  0  0  0  0  0
   -3.9708   -4.8834    6.1848 S   0  0  0  0  0  0  0  0  0  0  0  0
   -5.2270   -5.2709    5.6087 O   0  0  0  0  0  0  0  0  0  0  0  0
   -2.8152   -4.7181    5.3486 O   0  0  0  0  0  0  0  0  0  0  0  0
   -4.2297   -3.4853    7.0179 N   0  0  0  0  0  0  0  0  0  0  0  0
   -3.1427   -2.7300    7.6087 C   0  0  0  0  0  0  0  0  0  0  0  0
   -3.5657   -1.2677    7.7441 C   0  0  1  0  0  0  0  0  0  0  0  0
   -4.6844   -1.0988    8.6333 O   0  0  0  0  0  0  0  0  0  0  0  0
   -2.4621   -0.3995    8.3020 C   0  0  1  0  0  0  0  0  0  0  0  0
   -1.5260   -0.0537    7.2911 O   0  0  0  0  0  0  0  0  0  0  0  0
   -3.2491    0.7874    8.8177 C   0  0  2  0  0  0  0  0  0  0  0  0
   -4.5522    0.1809    9.3008 C   0  0  2  0  0  0  0  0  0  0  0  0
   -4.0208   -0.4682   12.8289 N   0  0  0  0  0  0  0  0  0  0  0  0
   -7.0443   -0.2975   10.9250 N   0  0  0  0  0  0  0  0  0  0  0  0
   -7.9621   -0.5692   11.8711 C   0  0  0  0  0  0  0  0  0  0  0  0
   -7.7307   -0.8185   13.1763 N   0  0  0  0  0  0  0  0  0  0  0  0
   -6.4433   -0.8106   13.6178 C   0  0  0  0  0  0  0  0  0  0  0  0
   -3.5450    1.5812    7.7437 F   0  0  0  0  0  0  0  0  0  0  0  0
   -6.9690   -1.2547   15.5574 H   0  0  0  0  0  0  0  0  0  0  0  0
   -5.2380   -1.0653   15.2658 H   0  0  0  0  0  0  0  0  0  0  0  0
   -2.5304   -0.0836   11.3519 H   0  0  0  0  0  0  0  0  0  0  0  0
   -2.3412  -10.6219   12.9375 H   0  0  0  0  0  0  0  0  0  0  0  0
   -0.7641   -8.5762   12.6943 H   0  0  0  0  0  0  0  0  0  0  0  0
    0.0894  -10.6317   16.1072 H   0  0  0  0  0  0  0  0  0  0  0  0
   -1.9503  -11.7148   14.9814 H   0  0  0  0  0  0  0  0  0  0  0  0
   -2.1800  -10.0108   17.1455 H   0  0  0  0  0  0  0  0  0  0  0  0
   -3.5991  -10.7575   16.3613 H   0  0  0  0  0  0  0  0  0  0  0  0
   -4.2866   -9.5886   13.7976 H   0  0  0  0  0  0  0  0  0  0  0  0
   -2.5072   -7.2288   13.0265 H   0  0  0  0  0  0  0  0  0  0  0  0
   -4.2676   -7.1526   13.2646 H   0  0  0  0  0  0  0  0  0  0  0  0
   -4.4997   -8.9891   11.5264 H   0  0  0  0  0  0  0  0  0  0  0  0
   -2.7551   -8.8246   11.2076 H   0  0  0  0  0  0  0  0  0  0  0  0
   -3.1131   -6.4120   10.6561 H   0  0  0  0  0  0  0  0  0  0  0  0
   -4.8605   -6.6359   10.9111 H   0  0  0  0  0  0  0  0  0  0  0  0
   -4.8722   -8.3454    9.0747 H   0  0  0  0  0  0  0  0  0  0  0  0
   -3.1436   -8.0186    8.7925 H   0  0  0  0  0  0  0  0  0  0  0  0
   -2.6066   -6.3253    7.3887 H   0  0  0  0  0  0  0  0  0  0  0  0
   -5.1934   -3.1387    7.0821 H   0  0  0  0  0  0  0  0  0  0  0  0
   -2.2658   -2.8003    6.9586 H   0  0  0  0  0  0  0  0  0  0  0  0
   -2.9082   -3.1550    8.5882 H   0  0  0  0  0  0  0  0  0  0  0  0
   -3.8594   -0.9116    6.7492 H   0  0  0  0  0  0  0  0  0  0  0  0
   -1.9352   -0.8980    9.1239 H   0  0  0  0  0  0  0  0  0  0  0  0
   -2.0017    0.4268    6.5834 H   0  0  0  0  0  0  0  0  0  0  0  0
   -2.7188    1.3725    9.5797 H   0  0  0  0  0  0  0  0  0  0  0  0
   -5.3954    0.8364    9.0225 H   0  0  0  0  0  0  0  0  0  0  0  0
   -9.0067   -0.5842   11.5465 H   0  0  0  0  0  0  0  0  0  0  0  0
  1  3  2  0  0  0  0
  1  4  1  0  0  0  0
  1 34  1  0  0  0  0
  2 37  1  0  0  0  0
  2 39  1  0  0  0  0
  2 40  1  0  0  0  0
  3 33  1  0  0  0  0
  3 37  1  0  0  0  0
  4  5  2  0  0  0  0
  4 32  1  0  0  0  0
  5 33  1  0  0  0  0
  5 41  1  0  0  0  0
  6  7  1  0  0  0  0
  6 11  1  0  0  0  0
  6 14  1  0  0  0  0
  6 42  1  6  0  0  0
  7  8  1  0  0  0  0
  7 43  1  0  0  0  0
  8  9  2  0  0  0  0
  8 10  1  0  0  0  0
 10 11  1  0  0  0  0
 10 44  1  0  0  0  0
 11 12  1  0  0  0  0
 11 45  1  6  0  0  0
 12 13  1  0  0  0  0
 12 46  1  0  0  0  0
 12 47  1  0  0  0  0
 13 14  1  0  0  0  0
 14 15  1  0  0  0  0
 14 48  1  6  0  0  0
 15 16  1  0  0  0  0
 15 49  1  0  0  0  0
 15 50  1  0  0  0  0
 16 17  1  0  0  0  0
 16 51  1  0  0  0  0
 16 52  1  0  0  0  0
 17 18  1  0  0  0  0
 17 53  1  0  0  0  0
 17 54  1  0  0  0  0
 18 19  1  0  0  0  0
 18 55  1  0  0  0  0
 18 56  1  0  0  0  0
 19 20  2  0  0  0  0
 19 21  1  0  0  0  0
 21 22  1  0  0  0  0
 21 57  1  0  0  0  0
 22 23  2  0  0  0  0
 22 24  2  0  0  0  0
 22 25  1  0  0  0  0
 25 26  1  0  0  0  0
 25 58  1  0  0  0  0
 26 27  1  0  0  0  0
 26 59  1  0  0  0  0
 26 60  1  0  0  0  0
 27 28  1  0  0  0  0
 27 29  1  0  0  0  0
 27 61  1  6  0  0  0
 28 32  1  0  0  0  0
 29 30  1  0  0  0  0
 29 31  1  0  0  0  0
 29 62  1  1  0  0  0
 30 63  1  0  0  0  0
 31 32  1  0  0  0  0
 31 38  1  0  0  0  0
 31 64  1  1  0  0  0
 32 65  1  6  0  0  0
 34 35  2  0  0  0  0
 35 36  1  0  0  0  0
 35 66  1  0  0  0  0
 36 37  2  0  0  0  0
M  CHG  1   4   1
M  END
$$$$
