44N
 OpenBabel04111922353D

 68 72  0  0  1  0  0  0  0  0999 V2000
   -8.0732   -0.5861   12.0654 C   0  0  0  0  0  0  0  0  0  0  0  0
   -5.5175   -0.7060   12.7922 C   0  0  0  0  0  0  0  0  0  0  0  0
   -5.9367   -0.4123   11.5105 C   0  0  0  0  0  0  0  0  0  0  0  0
   -7.2017   -0.3151   11.0764 N   0  0  0  0  0  0  0  0  0  0  0  0
   -3.7358   -0.4479   11.6528 C   0  0  0  0  0  0  0  0  0  0  0  0
   -7.8145   -0.8712   13.3617 N   0  0  0  0  0  0  0  0  0  0  0  0
   -6.5204   -0.9350   13.7497 C   0  0  0  0  0  0  0  0  0  0  0  0
   -2.2223  -10.0026   13.8295 C   0  0  1  0  0  0  0  0  0  0  0  0
   -0.9789   -9.3167   13.5016 N   0  0  0  0  0  0  0  0  0  0  0  0
   -0.0073   -9.5113   14.4436 C   0  0  0  0  0  0  0  0  0  0  0  0
    1.0741   -8.9616   14.4829 O   0  0  0  0  0  0  0  0  0  0  0  0
   -0.4573  -10.4732   15.3039 N   0  0  0  0  0  0  0  0  0  0  0  0
   -1.8901  -10.6810   15.1739 C   0  0  1  0  0  0  0  0  0  0  0  0
   -2.6316  -10.0147   16.3305 C   0  0  0  0  0  0  0  0  0  0  0  0
   -3.4627   -8.5398   15.7004 S   0  0  0  0  0  0  0  0  0  0  0  0
   -3.4283   -9.0692   13.9634 C   0  0  1  0  0  0  0  0  0  0  0  0
   -3.3699   -7.8746   13.0025 C   0  0  0  0  0  0  0  0  0  0  0  0
   -3.7248   -8.3425   11.5880 C   0  0  0  0  0  0  0  0  0  0  0  0
   -3.9573   -7.1613   10.6587 C   0  0  0  0  0  0  0  0  0  0  0  0
   -4.1838   -7.6149    9.2209 C   0  0  0  0  0  0  0  0  0  0  0  0
   -4.6049   -6.4228    8.3775 C   0  0  0  0  0  0  0  0  0  0  0  0
   -5.7369   -5.9286    8.5791 O   0  0  0  0  0  0  0  0  0  0  0  0
   -3.6405   -6.0143    7.5643 N   0  0  0  0  0  0  0  0  0  0  0  0
   -4.0231   -5.0334    6.3678 S   0  0  0  0  0  0  0  0  0  0  0  0
   -5.2436   -5.3364    5.6370 O   0  0  0  0  0  0  0  0  0  0  0  0
   -2.8921   -4.7158    5.5058 O   0  0  0  0  0  0  0  0  0  0  0  0
   -4.3575   -3.6137    7.1137 O   0  0  0  0  0  0  0  0  0  0  0  0
   -3.3835   -2.9058    7.8715 C   0  0  0  0  0  0  0  0  0  0  0  0
   -3.7757   -1.4280    7.8111 C   0  0  1  0  0  0  0  0  0  0  0  0
   -4.9194   -1.1829    8.6634 O   0  0  0  0  0  0  0  0  0  0  0  0
   -2.6888   -0.4637    8.2749 C   0  0  1  0  0  0  0  0  0  0  0  0
   -1.7842   -0.0779    7.2404 O   0  0  0  0  0  0  0  0  0  0  0  0
   -3.5188    0.7376    8.7221 C   0  0  2  0  0  0  0  0  0  0  0  0
   -3.9657    1.4452    7.5311 O   0  0  0  0  0  0  0  0  0  0  0  0
   -2.7568    1.7522    9.5520 C   0  0  0  0  0  0  0  0  0  0  0  0
   -4.7488    0.0674    9.3649 C   0  0  2  0  0  0  0  0  0  0  0  0
   -4.7757   -0.2338   10.7830 N   0  3  0  0  0  0  0  0  0  0  0  0
   -4.1422   -0.6911   12.8814 N   0  0  0  0  0  0  0  0  0  0  0  0
   -6.2379   -1.1941   15.0732 N   0  0  0  0  0  0  0  0  0  0  0  0
   -9.1253   -0.5632   11.7902 H   0  0  0  0  0  0  0  0  0  0  0  0
   -2.6949   -0.4106   11.3720 H   0  0  0  0  0  0  0  0  0  0  0  0
   -2.4017  -10.7412   13.0417 H   0  0  0  0  0  0  0  0  0  0  0  0
   -0.8241   -8.7142   12.6959 H   0  0  0  0  0  0  0  0  0  0  0  0
    0.1277  -10.7976   16.0648 H   0  0  0  0  0  0  0  0  0  0  0  0
   -2.0791  -11.7583   15.1453 H   0  0  0  0  0  0  0  0  0  0  0  0
   -1.9519   -9.7238   17.1377 H   0  0  0  0  0  0  0  0  0  0  0  0
   -3.3706  -10.7025   16.7530 H   0  0  0  0  0  0  0  0  0  0  0  0
   -4.3524   -9.6316   13.7898 H   0  0  0  0  0  0  0  0  0  0  0  0
   -2.3767   -7.4100   12.9881 H   0  0  0  0  0  0  0  0  0  0  0  0
   -4.0547   -7.0792   13.3194 H   0  0  0  0  0  0  0  0  0  0  0  0
   -4.6342   -8.9539   11.6283 H   0  0  0  0  0  0  0  0  0  0  0  0
   -2.9229   -8.9776   11.1928 H   0  0  0  0  0  0  0  0  0  0  0  0
   -3.0997   -6.4833   10.6916 H   0  0  0  0  0  0  0  0  0  0  0  0
   -4.8304   -6.5986   11.0161 H   0  0  0  0  0  0  0  0  0  0  0  0
   -4.9934   -8.3562    9.1797 H   0  0  0  0  0  0  0  0  0  0  0  0
   -3.2912   -8.1027    8.8209 H   0  0  0  0  0  0  0  0  0  0  0  0
   -2.3735   -3.0551    7.4749 H   0  0  0  0  0  0  0  0  0  0  0  0
   -3.4318   -3.2726    8.9026 H   0  0  0  0  0  0  0  0  0  0  0  0
   -4.0711   -1.1865    6.7822 H   0  0  0  0  0  0  0  0  0  0  0  0
   -2.1077   -0.8817    9.1034 H   0  0  0  0  0  0  0  0  0  0  0  0
   -2.3246    0.1916    6.4732 H   0  0  0  0  0  0  0  0  0  0  0  0
   -3.1779    1.7700    7.0628 H   0  0  0  0  0  0  0  0  0  0  0  0
   -3.4066    2.5884    9.8303 H   0  0  0  0  0  0  0  0  0  0  0  0
   -1.9145    2.1641    8.9850 H   0  0  0  0  0  0  0  0  0  0  0  0
   -2.3323    1.3336   10.4604 H   0  0  0  0  0  0  0  0  0  0  0  0
   -5.6301    0.6928    9.1635 H   0  0  0  0  0  0  0  0  0  0  0  0
   -7.0028   -1.3890   15.6960 H   0  0  0  0  0  0  0  0  0  0  0  0
   -5.2696   -1.2785   15.3451 H   0  0  0  0  0  0  0  0  0  0  0  0
  1  4  2  0  0  0  0
  1  6  1  0  0  0  0
  1 40  1  0  0  0  0
  2  3  2  0  0  0  0
  2  7  1  0  0  0  0
  2 38  1  0  0  0  0
  3  4  1  0  0  0  0
  3 37  1  0  0  0  0
  5 37  2  0  0  0  0
  5 38  1  0  0  0  0
  5 41  1  0  0  0  0
  6  7  2  0  0  0  0
  7 39  1  0  0  0  0
  8  9  1  0  0  0  0
  8 13  1  0  0  0  0
  8 16  1  0  0  0  0
  8 42  1  6  0  0  0
  9 10  1  0  0  0  0
  9 43  1  0  0  0  0
 10 11  2  0  0  0  0
 10 12  1  0  0  0  0
 12 13  1  0  0  0  0
 12 44  1  0  0  0  0
 13 14  1  0  0  0  0
 13 45  1  6  0  0  0
 14 15  1  0  0  0  0
 14 46  1  0  0  0  0
 14 47  1  0  0  0  0
 15 16  1  0  0  0  0
 16 17  1  0  0  0  0
 16 48  1  6  0  0  0
 17 18  1  0  0  0  0
 17 49  1  0  0  0  0
 17 50  1  0  0  0  0
 18 19  1  0  0  0  0
 18 51  1  0  0  0  0
 18 52  1  0  0  0  0
 19 20  1  0  0  0  0
 19 53  1  0  0  0  0
 19 54  1  0  0  0  0
 20 21  1  0  0  0  0
 20 55  1  0  0  0  0
 20 56  1  0  0  0  0
 21 22  2  0  0  0  0
 21 23  1  0  0  0  0
 23 24  1  0  0  0  0
 24 25  2  0  0  0  0
 24 26  2  0  0  0  0
 24 27  1  0  0  0  0
 27 28  1  0  0  0  0
 28 29  1  0  0  0  0
 28 57  1  0  0  0  0
 28 58  1  0  0  0  0
 29 30  1  0  0  0  0
 29 31  1  0  0  0  0
 29 59  1  6  0  0  0
 30 36  1  0  0  0  0
 31 32  1  0  0  0  0
 31 33  1  0  0  0  0
 31 60  1  1  0  0  0
 32 61  1  0  0  0  0
 33 34  1  6  0  0  0
 33 35  1  0  0  0  0
 33 36  1  0  0  0  0
 34 62  1  0  0  0  0
 35 63  1  0  0  0  0
 35 64  1  0  0  0  0
 35 65  1  0  0  0  0
 36 37  1  0  0  0  0
 36 66  1  6  0  0  0
 39 67  1  0  0  0  0
 39 68  1  0  0  0  0
M  CHG  1  37   1
M  END
$$$$
