44O
 OpenBabel04111922353D

 66 70  0  0  1  0  0  0  0  0999 V2000
   -6.4683   -1.2250   11.9485 C   0  0  0  0  0  0  0  0  0  0  0  0
   -6.0951   -1.4661   13.2581 C   0  0  0  0  0  0  0  0  0  0  0  0
   -7.1292   -1.7422   14.1685 C   0  0  0  0  0  0  0  0  0  0  0  0
   -4.2742   -1.1201   12.2070 C   0  0  0  0  0  0  0  0  0  0  0  0
   -8.4029   -1.7564   13.7114 N   0  0  0  0  0  0  0  0  0  0  0  0
   -7.7078   -1.2306   11.4363 N   0  0  0  0  0  0  0  0  0  0  0  0
   -2.7139  -10.7738   13.9476 C   0  0  1  0  0  0  0  0  0  0  0  0
   -1.4905  -10.0474   13.6664 N   0  0  0  0  0  0  0  0  0  0  0  0
   -0.5365  -10.2341   14.6340 C   0  0  0  0  0  0  0  0  0  0  0  0
    0.5490   -9.6844   14.6842 O   0  0  0  0  0  0  0  0  0  0  0  0
   -1.0052  -11.1744   15.5177 N   0  0  0  0  0  0  0  0  0  0  0  0
   -2.3933  -11.5054   15.2716 C   0  0  1  0  0  0  0  0  0  0  0  0
   -3.2803  -10.9976   16.4063 C   0  0  0  0  0  0  0  0  0  0  0  0
   -3.8927   -9.3833   15.8812 S   0  0  0  0  0  0  0  0  0  0  0  0
   -3.9488   -9.8837   14.1368 C   0  0  1  0  0  0  0  0  0  0  0  0
   -4.0265   -8.6723   13.2095 C   0  0  0  0  0  0  0  0  0  0  0  0
   -4.2556   -9.0961   11.7554 C   0  0  0  0  0  0  0  0  0  0  0  0
   -4.5748   -7.8980   10.8616 C   0  0  0  0  0  0  0  0  0  0  0  0
   -4.7695   -8.3176    9.4035 C   0  0  0  0  0  0  0  0  0  0  0  0
   -5.2414   -7.1277    8.5577 C   0  0  0  0  0  0  0  0  0  0  0  0
   -6.2900   -6.5697    8.8444 O   0  0  0  0  0  0  0  0  0  0  0  0
   -4.3534   -6.8438    7.5960 N   0  0  0  0  0  0  0  0  0  0  0  0
   -4.7293   -5.7638    6.5087 S   0  0  0  0  0  0  0  0  0  0  0  0
   -6.0511   -5.8534    5.8793 O   0  0  0  0  0  0  0  0  0  0  0  0
   -3.6587   -5.4764    5.5498 O   0  0  0  0  0  0  0  0  0  0  0  0
   -4.8564   -4.3904    7.3635 O   0  0  0  0  0  0  0  0  0  0  0  0
   -3.7485   -3.7437    7.9469 C   0  0  0  0  0  0  0  0  0  0  0  0
   -4.2312   -2.2984    8.1021 C   0  0  1  0  0  0  0  0  0  0  0  0
   -4.7123   -2.1449    9.4410 O   0  0  0  0  0  0  0  0  0  0  0  0
   -3.0717   -1.3615    7.8203 C   0  0  0  0  0  0  0  0  0  0  0  0
   -3.4905    0.0447    8.1506 N   0  3  0  0  0  0  0  0  0  0  0  0
   -4.0179    0.2100    9.5483 C   0  0  0  0  0  0  0  0  0  0  0  0
   -5.1026   -0.8406    9.8676 C   0  0  2  0  0  0  0  0  0  0  0  0
   -5.2720   -0.9820   11.3004 N   0  3  0  0  0  0  0  0  0  0  0  0
   -4.7192   -1.3585   13.4089 N   0  0  0  0  0  0  0  0  0  0  0  0
   -8.6149   -1.5247   12.3950 C   0  0  0  0  0  0  0  0  0  0  0  0
   -6.9042   -1.9666   15.5072 N   0  0  0  0  0  0  0  0  0  0  0  0
   -3.2113   -1.0487   11.9607 H   0  0  0  0  0  0  0  0  0  0  0  0
   -2.8734  -11.4813   13.1261 H   0  0  0  0  0  0  0  0  0  0  0  0
   -1.3224   -9.4224   12.8895 H   0  0  0  0  0  0  0  0  0  0  0  0
   -0.4516  -11.4617   16.3129 H   0  0  0  0  0  0  0  0  0  0  0  0
   -2.4649  -12.5926   15.1666 H   0  0  0  0  0  0  0  0  0  0  0  0
   -2.7348  -10.9098   17.3501 H   0  0  0  0  0  0  0  0  0  0  0  0
   -4.1346  -11.6660   16.5491 H   0  0  0  0  0  0  0  0  0  0  0  0
   -4.8504  -10.4967   14.0166 H   0  0  0  0  0  0  0  0  0  0  0  0
   -3.1066   -8.0772   13.2722 H   0  0  0  0  0  0  0  0  0  0  0  0
   -4.8481   -8.0223   13.5311 H   0  0  0  0  0  0  0  0  0  0  0  0
   -5.0867   -9.8107   11.7131 H   0  0  0  0  0  0  0  0  0  0  0  0
   -3.3630   -9.6063   11.3758 H   0  0  0  0  0  0  0  0  0  0  0  0
   -3.7618   -7.1651   10.9204 H   0  0  0  0  0  0  0  0  0  0  0  0
   -5.4819   -7.4057   11.2325 H   0  0  0  0  0  0  0  0  0  0  0  0
   -5.5363   -9.0999    9.3432 H   0  0  0  0  0  0  0  0  0  0  0  0
   -3.8403   -8.7502    9.0158 H   0  0  0  0  0  0  0  0  0  0  0  0
   -2.8463   -3.8011    7.3212 H   0  0  0  0  0  0  0  0  0  0  0  0
   -3.5308   -4.1861    8.9305 H   0  0  0  0  0  0  0  0  0  0  0  0
   -5.0529   -2.0808    7.4047 H   0  0  0  0  0  0  0  0  0  0  0  0
   -2.8124   -1.3606    6.7571 H   0  0  0  0  0  0  0  0  0  0  0  0
   -2.1891   -1.5945    8.4238 H   0  0  0  0  0  0  0  0  0  0  0  0
   -2.6906    0.6650    8.0039 H   0  0  0  0  0  0  0  0  0  0  0  0
   -4.4061    1.2318    9.6148 H   0  0  0  0  0  0  0  0  0  0  0  0
   -3.1429    0.1378   10.1995 H   0  0  0  0  0  0  0  0  0  0  0  0
   -6.0492   -0.5268    9.4083 H   0  0  0  0  0  0  0  0  0  0  0  0
   -9.6548   -1.5667   12.0756 H   0  0  0  0  0  0  0  0  0  0  0  0
   -7.6905   -2.1837   16.0967 H   0  0  0  0  0  0  0  0  0  0  0  0
   -5.9522   -2.0057   15.8424 H   0  0  0  0  0  0  0  0  0  0  0  0
   -4.2344    0.3033    7.4925 H   0  0  0  0  0  0  0  0  0  0  0  0
  1  2  2  0  0  0  0
  1  6  1  0  0  0  0
  1 34  1  0  0  0  0
  2  3  1  0  0  0  0
  2 35  1  0  0  0  0
  3  5  2  0  0  0  0
  3 37  1  0  0  0  0
  4 34  2  0  0  0  0
  4 35  1  0  0  0  0
  4 38  1  0  0  0  0
  5 36  1  0  0  0  0
  6 36  2  0  0  0  0
  7  8  1  0  0  0  0
  7 12  1  0  0  0  0
  7 15  1  0  0  0  0
  7 39  1  6  0  0  0
  8  9  1  0  0  0  0
  8 40  1  0  0  0  0
  9 10  2  0  0  0  0
  9 11  1  0  0  0  0
 11 12  1  0  0  0  0
 11 41  1  0  0  0  0
 12 13  1  0  0  0  0
 12 42  1  6  0  0  0
 13 14  1  0  0  0  0
 13 43  1  0  0  0  0
 13 44  1  0  0  0  0
 14 15  1  0  0  0  0
 15 16  1  0  0  0  0
 15 45  1  6  0  0  0
 16 17  1  0  0  0  0
 16 46  1  0  0  0  0
 16 47  1  0  0  0  0
 17 18  1  0  0  0  0
 17 48  1  0  0  0  0
 17 49  1  0  0  0  0
 18 19  1  0  0  0  0
 18 50  1  0  0  0  0
 18 51  1  0  0  0  0
 19 20  1  0  0  0  0
 19 52  1  0  0  0  0
 19 53  1  0  0  0  0
 20 21  2  0  0  0  0
 20 22  1  0  0  0  0
 22 23  1  0  0  0  0
 23 24  2  0  0  0  0
 23 25  2  0  0  0  0
 23 26  1  0  0  0  0
 26 27  1  0  0  0  0
 27 28  1  0  0  0  0
 27 54  1  0  0  0  0
 27 55  1  0  0  0  0
 28 29  1  0  0  0  0
 28 30  1  0  0  0  0
 28 56  1  6  0  0  0
 29 33  1  0  0  0  0
 30 31  1  0  0  0  0
 30 57  1  0  0  0  0
 30 58  1  0  0  0  0
 31 32  1  0  0  0  0
 31 59  1  0  0  0  0
 31 66  1  0  0  0  0
 32 33  1  0  0  0  0
 32 60  1  0  0  0  0
 32 61  1  0  0  0  0
 33 34  1  0  0  0  0
 33 62  1  6  0  0  0
 36 63  1  0  0  0  0
 37 64  1  0  0  0  0
 37 65  1  0  0  0  0
M  CHG  2  31   1  34   1
M  END
$$$$
