44R
 OpenBabel04111922363D

 61 64  0  0  1  0  0  0  0  0999 V2000
   -7.9205   -0.8225   11.9441 C   0  0  0  0  0  0  0  0  0  0  0  0
   -5.7703   -0.4166   11.5873 C   0  0  0  0  0  0  0  0  0  0  0  0
   -5.4563   -0.6064   12.9208 C   0  0  0  0  0  0  0  0  0  0  0  0
   -6.5154   -0.9246   13.7846 C   0  0  0  0  0  0  0  0  0  0  0  0
   -7.7599   -1.0328   13.2683 N   0  0  0  0  0  0  0  0  0  0  0  0
   -6.9889   -0.4958   11.0242 N   0  0  0  0  0  0  0  0  0  0  0  0
   -3.6049   -0.1523   11.9608 C   0  0  0  0  0  0  0  0  0  0  0  0
   -2.1685  -10.0449   13.8586 C   0  0  1  0  0  0  0  0  0  0  0  0
   -0.9473   -9.3952   13.4429 N   0  0  0  0  0  0  0  0  0  0  0  0
    0.0419   -9.5150   14.3734 C   0  0  0  0  0  0  0  0  0  0  0  0
    1.1426   -8.9778   14.3140 O   0  0  0  0  0  0  0  0  0  0  0  0
   -0.4009  -10.3425   15.3687 N   0  0  0  0  0  0  0  0  0  0  0  0
   -1.8273  -10.5762   15.2651 C   0  0  1  0  0  0  0  0  0  0  0  0
   -2.5717   -9.8125   16.3546 C   0  0  0  0  0  0  0  0  0  0  0  0
   -3.6355   -8.5755   15.5952 S   0  0  0  0  0  0  0  0  0  0  0  0
   -3.3897   -9.1238   13.8856 C   0  0  1  0  0  0  0  0  0  0  0  0
   -3.2566   -7.8988   12.9687 C   0  0  0  0  0  0  0  0  0  0  0  0
   -3.5610   -8.2918   11.5271 C   0  0  0  0  0  0  0  0  0  0  0  0
   -3.6777   -7.0656   10.6388 C   0  0  0  0  0  0  0  0  0  0  0  0
   -4.0657   -7.4823    9.2319 C   0  0  0  0  0  0  0  0  0  0  0  0
   -4.5059   -6.2781    8.4536 C   0  0  0  0  0  0  0  0  0  0  0  0
   -5.5861   -5.7482    8.6662 O   0  0  0  0  0  0  0  0  0  0  0  0
   -3.5668   -5.7801    7.5432 N   0  0  0  0  0  0  0  0  0  0  0  0
   -3.9777   -4.7857    6.3010 S   0  0  0  0  0  0  0  0  0  0  0  0
   -5.3614   -4.9488    5.9404 O   0  0  0  0  0  0  0  0  0  0  0  0
   -2.9370   -4.9420    5.3122 O   0  0  0  0  0  0  0  0  0  0  0  0
   -3.7931   -3.2853    6.9493 N   0  0  0  0  0  0  0  0  0  0  0  0
   -3.0493   -3.0169    8.1760 C   0  0  0  0  0  0  0  0  0  0  0  0
   -3.0306   -1.5178    8.4757 C   0  0  0  0  0  0  0  0  0  0  0  0
   -4.3358   -1.1177    8.8897 O   0  0  0  0  0  0  0  0  0  0  0  0
   -4.3521    0.1250    9.5828 C   0  0  0  0  0  0  0  0  0  0  0  0
   -4.5718   -0.1375   10.9878 N   0  3  0  0  0  0  0  0  0  0  0  0
   -4.1011   -0.4283   13.1419 N   0  0  0  0  0  0  0  0  0  0  0  0
   -6.3258   -1.1225   15.1323 N   0  0  0  0  0  0  0  0  0  0  0  0
   -8.9404   -0.9257   11.5716 H   0  0  0  0  0  0  0  0  0  0  0  0
   -2.5621    0.0419   11.7515 H   0  0  0  0  0  0  0  0  0  0  0  0
   -2.3309  -10.8711   13.1563 H   0  0  0  0  0  0  0  0  0  0  0  0
   -0.7982   -8.8418   12.6092 H   0  0  0  0  0  0  0  0  0  0  0  0
    0.1911  -10.5473   16.1640 H   0  0  0  0  0  0  0  0  0  0  0  0
   -1.9945  -11.6546   15.3506 H   0  0  0  0  0  0  0  0  0  0  0  0
   -1.8888   -9.3048   17.0434 H   0  0  0  0  0  0  0  0  0  0  0  0
   -3.1841  -10.4995   16.9474 H   0  0  0  0  0  0  0  0  0  0  0  0
   -4.2827   -9.7000   13.6106 H   0  0  0  0  0  0  0  0  0  0  0  0
   -2.2551   -7.4534   13.0186 H   0  0  0  0  0  0  0  0  0  0  0  0
   -3.9346   -7.0973   13.2814 H   0  0  0  0  0  0  0  0  0  0  0  0
   -4.5083   -8.8451   11.5008 H   0  0  0  0  0  0  0  0  0  0  0  0
   -2.7844   -8.9607   11.1377 H   0  0  0  0  0  0  0  0  0  0  0  0
   -2.7268   -6.5164   10.6184 H   0  0  0  0  0  0  0  0  0  0  0  0
   -4.4299   -6.3821   11.0556 H   0  0  0  0  0  0  0  0  0  0  0  0
   -4.9207   -8.1715    9.2530 H   0  0  0  0  0  0  0  0  0  0  0  0
   -3.2405   -7.9994    8.7315 H   0  0  0  0  0  0  0  0  0  0  0  0
   -2.6267   -6.1602    7.4831 H   0  0  0  0  0  0  0  0  0  0  0  0
   -4.2000   -2.5167    6.4184 H   0  0  0  0  0  0  0  0  0  0  0  0
   -2.0235   -3.3820    8.0768 H   0  0  0  0  0  0  0  0  0  0  0  0
   -3.5458   -3.5305    9.0060 H   0  0  0  0  0  0  0  0  0  0  0  0
   -2.7580   -0.9391    7.5865 H   0  0  0  0  0  0  0  0  0  0  0  0
   -2.3024   -1.3219    9.2698 H   0  0  0  0  0  0  0  0  0  0  0  0
   -5.1785    0.7371    9.2116 H   0  0  0  0  0  0  0  0  0  0  0  0
   -3.4169    0.6818    9.4596 H   0  0  0  0  0  0  0  0  0  0  0  0
   -7.1159   -1.3554   15.7060 H   0  0  0  0  0  0  0  0  0  0  0  0
   -5.3850   -1.0511   15.4975 H   0  0  0  0  0  0  0  0  0  0  0  0
  1  5  2  0  0  0  0
  1  6  1  0  0  0  0
  1 35  1  0  0  0  0
  2  3  1  0  0  0  0
  2  6  2  0  0  0  0
  2 32  1  0  0  0  0
  3  4  2  0  0  0  0
  3 33  1  0  0  0  0
  4  5  1  0  0  0  0
  4 34  1  0  0  0  0
  7 32  2  0  0  0  0
  7 33  1  0  0  0  0
  7 36  1  0  0  0  0
  8  9  1  0  0  0  0
  8 13  1  0  0  0  0
  8 16  1  0  0  0  0
  8 37  1  6  0  0  0
  9 10  1  0  0  0  0
  9 38  1  0  0  0  0
 10 11  2  0  0  0  0
 10 12  1  0  0  0  0
 12 13  1  0  0  0  0
 12 39  1  0  0  0  0
 13 14  1  0  0  0  0
 13 40  1  1  0  0  0
 14 15  1  0  0  0  0
 14 41  1  0  0  0  0
 14 42  1  0  0  0  0
 15 16  1  0  0  0  0
 16 17  1  0  0  0  0
 16 43  1  6  0  0  0
 17 18  1  0  0  0  0
 17 44  1  0  0  0  0
 17 45  1  0  0  0  0
 18 19  1  0  0  0  0
 18 46  1  0  0  0  0
 18 47  1  0  0  0  0
 19 20  1  0  0  0  0
 19 48  1  0  0  0  0
 19 49  1  0  0  0  0
 20 21  1  0  0  0  0
 20 50  1  0  0  0  0
 20 51  1  0  0  0  0
 21 22  2  0  0  0  0
 21 23  1  0  0  0  0
 23 24  1  0  0  0  0
 23 52  1  0  0  0  0
 24 25  2  0  0  0  0
 24 26  2  0  0  0  0
 24 27  1  0  0  0  0
 27 28  1  0  0  0  0
 27 53  1  0  0  0  0
 28 29  1  0  0  0  0
 28 54  1  0  0  0  0
 28 55  1  0  0  0  0
 29 30  1  0  0  0  0
 29 56  1  0  0  0  0
 29 57  1  0  0  0  0
 30 31  1  0  0  0  0
 31 32  1  0  0  0  0
 31 58  1  0  0  0  0
 31 59  1  0  0  0  0
 34 60  1  0  0  0  0
 34 61  1  0  0  0  0
M  CHG  1  32   1
M  END
$$$$
