4CC
 OpenBabel04111919393D

 60 63  0  0  0  0  0  0  0  0999 V2000
  -37.6600   52.8227    0.1525 C   0  0  0  0  0  0  0  0  0  0  0  0
  -39.0447   52.8413    0.0123 N   0  0  0  0  0  0  0  0  0  0  0  0
  -39.9307   52.8711    1.1840 C   0  0  0  0  0  0  0  0  0  0  0  0
  -39.7007   53.9580    2.2058 C   0  0  0  0  0  0  0  0  0  0  0  0
  -39.3873   55.2139    1.9293 N   0  0  0  0  0  0  0  0  0  0  0  0
  -39.1532   55.8271    3.1350 C   0  0  0  0  0  0  0  0  0  0  0  0
  -38.7440   57.1382    3.4129 C   0  0  0  0  0  0  0  0  0  0  0  0
  -38.5509   57.5049    4.7555 C   0  0  0  0  0  0  0  0  0  0  0  0
  -38.0940   58.8900    5.0617 C   0  0  0  0  0  0  0  0  0  0  0  0
  -38.5486   59.7932    4.3667 O   0  0  0  0  0  0  0  0  0  0  0  0
  -37.2429   59.0619    6.1564 N   0  0  0  0  0  0  0  0  0  0  0  0
  -36.2013   58.1428    6.4637 C   0  0  0  0  0  0  0  0  0  0  0  0
  -35.4898   57.5327    5.4315 C   0  0  0  0  0  0  0  0  0  0  0  0
  -34.4528   56.6561    5.7408 C   0  0  0  0  0  0  0  0  0  0  0  0
  -34.1533   56.4107    7.0735 C   0  0  0  0  0  0  0  0  0  0  0  0
  -34.9035   57.0549    8.0402 C   0  0  0  0  0  0  0  0  0  0  0  0
  -35.9115   57.9094    7.7615 N   0  0  0  0  0  0  0  0  0  0  0  0
  -37.0464   60.4187    6.6951 C   0  0  0  0  0  0  0  0  0  0  0  0
  -36.0759   61.2202    5.8392 C   0  0  0  0  0  0  0  0  0  0  0  0
  -35.7496   62.5808    6.4297 C   0  0  0  0  0  0  0  0  0  0  0  0
  -35.0611   63.3187    5.6672 O   0  0  0  0  0  0  0  0  0  0  0  0
  -36.1662   62.8095    7.5978 O   0  0  0  0  0  0  0  0  0  0  0  0
  -38.8109   56.6002    5.7948 C   0  0  0  0  0  0  0  0  0  0  0  0
  -39.1984   55.2880    5.5283 C   0  0  0  0  0  0  0  0  0  0  0  0
  -39.3524   54.9391    4.1815 C   0  0  0  0  0  0  0  0  0  0  0  0
  -39.6940   53.7528    3.5702 N   0  3  0  0  0  0  0  0  0  0  0  0
  -39.8897   52.5236    4.3020 C   0  0  0  0  0  0  0  0  0  0  0  0
  -37.0064   52.5702    1.3568 C   0  0  0  0  0  0  0  0  0  0  0  0
  -35.6166   52.4778    1.4436 C   0  0  0  0  0  0  0  0  0  0  0  0
  -34.8182   52.5531    0.2960 C   0  0  0  0  0  0  0  0  0  0  0  0
  -33.3509   52.3776    0.3901 C   0  0  0  0  0  0  0  0  0  0  0  0
  -32.8312   51.7143    1.4027 N   0  0  0  0  0  0  0  0  0  0  0  0
  -32.5619   52.8610   -0.5422 N   0  0  0  0  0  0  0  0  0  0  0  0
  -35.4700   52.7816   -0.9254 C   0  0  0  0  0  0  0  0  0  0  0  0
  -36.8604   52.9251   -0.9930 C   0  0  0  0  0  0  0  0  0  0  0  0
  -39.3663   53.4690   -0.7214 H   0  0  0  0  0  0  0  0  0  0  0  0
  -39.8692   51.8800    1.6407 H   0  0  0  0  0  0  0  0  0  0  0  0
  -40.9617   52.9659    0.8228 H   0  0  0  0  0  0  0  0  0  0  0  0
  -38.5697   57.8463    2.6091 H   0  0  0  0  0  0  0  0  0  0  0  0
  -35.6937   57.7831    4.3959 H   0  0  0  0  0  0  0  0  0  0  0  0
  -33.8685   56.2073    4.9463 H   0  0  0  0  0  0  0  0  0  0  0  0
  -33.3382   55.7538    7.3554 H   0  0  0  0  0  0  0  0  0  0  0  0
  -34.7014   56.9130    9.0970 H   0  0  0  0  0  0  0  0  0  0  0  0
  -36.7138   60.3466    7.7375 H   0  0  0  0  0  0  0  0  0  0  0  0
  -38.0237   60.9182    6.7101 H   0  0  0  0  0  0  0  0  0  0  0  0
  -36.4935   61.3670    4.8355 H   0  0  0  0  0  0  0  0  0  0  0  0
  -35.1332   60.6745    5.7145 H   0  0  0  0  0  0  0  0  0  0  0  0
  -38.7053   56.9167    6.8333 H   0  0  0  0  0  0  0  0  0  0  0  0
  -39.3714   54.5877    6.3381 H   0  0  0  0  0  0  0  0  0  0  0  0
  -40.1388   51.6974    3.6383 H   0  0  0  0  0  0  0  0  0  0  0  0
  -40.7089   52.6721    5.0144 H   0  0  0  0  0  0  0  0  0  0  0  0
  -38.9637   52.2926    4.8327 H   0  0  0  0  0  0  0  0  0  0  0  0
  -37.5606   52.4642    2.2825 H   0  0  0  0  0  0  0  0  0  0  0  0
  -35.1970   52.3512    2.4363 H   0  0  0  0  0  0  0  0  0  0  0  0
  -31.8351   51.5846    1.5093 H   0  0  0  0  0  0  0  0  0  0  0  0
  -32.9399   53.4067   -1.3089 H   0  0  0  0  0  0  0  0  0  0  0  0
  -31.5599   52.7506   -0.5139 H   0  0  0  0  0  0  0  0  0  0  0  0
  -34.9222   52.8369   -1.8638 H   0  0  0  0  0  0  0  0  0  0  0  0
  -37.3291   53.1000   -1.9582 H   0  0  0  0  0  0  0  0  0  0  0  0
  -33.4246   51.3056    2.1182 H   0  0  0  0  0  0  0  0  0  0  0  0
  1  2  1  0  0  0  0
  1 28  2  0  0  0  0
  1 35  1  0  0  0  0
  2  3  1  0  0  0  0
  2 36  1  0  0  0  0
  3  4  1  0  0  0  0
  3 37  1  0  0  0  0
  3 38  1  0  0  0  0
  4  5  1  0  0  0  0
  4 26  2  0  0  0  0
  5  6  1  0  0  0  0
  6  7  2  0  0  0  0
  6 25  1  0  0  0  0
  7  8  1  0  0  0  0
  7 39  1  0  0  0  0
  8  9  1  0  0  0  0
  8 23  2  0  0  0  0
  9 10  2  0  0  0  0
  9 11  1  0  0  0  0
 11 12  1  0  0  0  0
 11 18  1  0  0  0  0
 12 13  2  0  0  0  0
 12 17  1  0  0  0  0
 13 14  1  0  0  0  0
 13 40  1  0  0  0  0
 14 15  2  0  0  0  0
 14 41  1  0  0  0  0
 15 16  1  0  0  0  0
 15 42  1  0  0  0  0
 16 17  2  0  0  0  0
 16 43  1  0  0  0  0
 18 19  1  0  0  0  0
 18 44  1  0  0  0  0
 18 45  1  0  0  0  0
 19 20  1  0  0  0  0
 19 46  1  0  0  0  0
 19 47  1  0  0  0  0
 20 21  2  0  0  0  0
 20 22  1  0  0  0  0
 23 24  1  0  0  0  0
 23 48  1  0  0  0  0
 24 25  2  0  0  0  0
 24 49  1  0  0  0  0
 25 26  1  0  0  0  0
 26 27  1  0  0  0  0
 27 50  1  0  0  0  0
 27 51  1  0  0  0  0
 27 52  1  0  0  0  0
 28 29  1  0  0  0  0
 28 53  1  0  0  0  0
 29 30  2  0  0  0  0
 29 54  1  0  0  0  0
 30 31  1  0  0  0  0
 30 34  1  0  0  0  0
 31 32  2  0  0  0  0
 31 33  1  0  0  0  0
 32 55  1  0  0  0  0
 32 60  1  0  0  0  0
 33 56  1  0  0  0  0
 33 57  1  0  0  0  0
 34 35  2  0  0  0  0
 34 58  1  0  0  0  0
 35 59  1  0  0  0  0
M  CHG  1  26   1
M  END
$$$$
