4CC
 OpenBabel04111922423D

 60 63  0  0  0  0  0  0  0  0999 V2000
    4.4071  -20.6858   11.8332 N   0  3  0  0  0  0  0  0  0  0  0  0
    3.5695  -22.8819   12.8119 C   0  0  0  0  0  0  0  0  0  0  0  0
    1.0561  -21.6300   12.3571 C   0  0  0  0  0  0  0  0  0  0  0  0
    3.7443  -19.5694   11.3646 C   0  0  0  0  0  0  0  0  0  0  0  0
    5.8320  -20.9111   11.8948 C   0  0  0  0  0  0  0  0  0  0  0  0
    1.1400  -22.9075   12.9355 C   0  0  0  0  0  0  0  0  0  0  0  0
   -0.6432  -22.2192   15.1153 C   0  0  0  0  0  0  0  0  0  0  0  0
    2.7009  -16.2993    8.1778 C   0  0  0  0  0  0  0  0  0  0  0  0
   -1.3030  -20.9971   15.1991 C   0  0  0  0  0  0  0  0  0  0  0  0
    5.0161  -16.8370    6.7444 C   0  0  0  0  0  0  0  0  0  0  0  0
   -0.9339  -20.0946   16.1923 C   0  0  0  0  0  0  0  0  0  0  0  0
   -3.7640  -25.4585   15.3137 C   0  0  0  0  0  0  0  0  0  0  0  0
    3.4681  -21.5964   12.2603 C   0  0  0  0  0  0  0  0  0  0  0  0
    2.2480  -20.9684   12.0281 C   0  0  0  0  0  0  0  0  0  0  0  0
    2.4366  -19.7258   11.4663 N   0  0  0  0  0  0  0  0  0  0  0  0
    2.3753  -23.5308   13.1383 C   0  0  0  0  0  0  0  0  0  0  0  0
    4.4395  -18.3472   10.8306 C   0  0  0  0  0  0  0  0  0  0  0  0
   -0.0991  -23.6737   13.2171 C   0  0  0  0  0  0  0  0  0  0  0  0
    3.5747  -17.3869   10.1384 N   0  0  0  0  0  0  0  0  0  0  0  0
   -1.0301  -23.1151   14.0925 N   0  0  0  0  0  0  0  0  0  0  0  0
   -0.2705  -24.6892   12.5497 O   0  0  0  0  0  0  0  0  0  0  0  0
    3.7106  -17.0560    8.7982 C   0  0  0  0  0  0  0  0  0  0  0  0
   -2.3515  -23.7545   14.2522 C   0  0  0  0  0  0  0  0  0  0  0  0
    4.8737  -17.2851    8.0581 C   0  0  0  0  0  0  0  0  0  0  0  0
    0.3598  -22.5613   15.9566 N   0  0  0  0  0  0  0  0  0  0  0  0
   -2.3473  -24.9075   15.2456 C   0  0  0  0  0  0  0  0  0  0  0  0
    2.8380  -15.8296    6.8623 C   0  0  0  0  0  0  0  0  0  0  0  0
    0.6405  -21.7008   16.9605 C   0  0  0  0  0  0  0  0  0  0  0  0
    4.0013  -16.0978    6.1332 C   0  0  0  0  0  0  0  0  0  0  0  0
    0.0407  -20.4608   17.1096 C   0  0  0  0  0  0  0  0  0  0  0  0
   -4.6473  -24.6315   15.6967 O   0  0  0  0  0  0  0  0  0  0  0  0
   -3.8914  -26.6730   15.0007 O   0  0  0  0  0  0  0  0  0  0  0  0
    4.1895  -15.5976    4.7711 C   0  0  0  0  0  0  0  0  0  0  0  0
    4.1606  -14.3014    4.5557 N   0  0  0  0  0  0  0  0  0  0  0  0
    4.4205  -16.4575    3.8032 N   0  0  0  0  0  0  0  0  0  0  0  0
    4.5244  -23.3693   12.9779 H   0  0  0  0  0  0  0  0  0  0  0  0
    0.0991  -21.1676   12.1479 H   0  0  0  0  0  0  0  0  0  0  0  0
    6.3800  -20.0497   11.5107 H   0  0  0  0  0  0  0  0  0  0  0  0
    6.0698  -21.7908   11.2899 H   0  0  0  0  0  0  0  0  0  0  0  0
    6.1120  -21.0791   12.9380 H   0  0  0  0  0  0  0  0  0  0  0  0
    1.7920  -16.0674    8.7282 H   0  0  0  0  0  0  0  0  0  0  0  0
   -2.0710  -20.7389   14.4785 H   0  0  0  0  0  0  0  0  0  0  0  0
    5.9485  -17.0495    6.2249 H   0  0  0  0  0  0  0  0  0  0  0  0
   -1.4189  -19.1256   16.2550 H   0  0  0  0  0  0  0  0  0  0  0  0
    2.3992  -24.5360   13.5571 H   0  0  0  0  0  0  0  0  0  0  0  0
    5.2629  -18.6843   10.2015 H   0  0  0  0  0  0  0  0  0  0  0  0
    4.8924  -17.8202   11.6799 H   0  0  0  0  0  0  0  0  0  0  0  0
    2.6101  -17.4935   10.4573 H   0  0  0  0  0  0  0  0  0  0  0  0
   -2.6662  -24.1213   13.2671 H   0  0  0  0  0  0  0  0  0  0  0  0
   -3.0768  -22.9834   14.5369 H   0  0  0  0  0  0  0  0  0  0  0  0
    5.7184  -17.8142    8.4868 H   0  0  0  0  0  0  0  0  0  0  0  0
   -1.6415  -25.6878   14.9425 H   0  0  0  0  0  0  0  0  0  0  0  0
   -2.0551  -24.5706   16.2478 H   0  0  0  0  0  0  0  0  0  0  0  0
    2.0195  -15.2594    6.4264 H   0  0  0  0  0  0  0  0  0  0  0  0
    1.3822  -22.0492   17.6739 H   0  0  0  0  0  0  0  0  0  0  0  0
    0.3194  -19.8022   17.9237 H   0  0  0  0  0  0  0  0  0  0  0  0
    4.3060  -13.8951    3.6426 H   0  0  0  0  0  0  0  0  0  0  0  0
    4.4178  -17.4530    4.0096 H   0  0  0  0  0  0  0  0  0  0  0  0
    4.5767  -16.1776    2.8453 H   0  0  0  0  0  0  0  0  0  0  0  0
    4.0140  -13.6695    5.3380 H   0  0  0  0  0  0  0  0  0  0  0  0
  1  4  2  0  0  0  0
  1  5  1  0  0  0  0
  1 13  1  0  0  0  0
  2 13  2  0  0  0  0
  2 16  1  0  0  0  0
  2 36  1  0  0  0  0
  3  6  1  0  0  0  0
  3 14  2  0  0  0  0
  3 37  1  0  0  0  0
  4 15  1  0  0  0  0
  4 17  1  0  0  0  0
  5 38  1  0  0  0  0
  5 39  1  0  0  0  0
  5 40  1  0  0  0  0
  6 16  2  0  0  0  0
  6 18  1  0  0  0  0
  7  9  2  0  0  0  0
  7 20  1  0  0  0  0
  7 25  1  0  0  0  0
  8 22  2  0  0  0  0
  8 27  1  0  0  0  0
  8 41  1  0  0  0  0
  9 11  1  0  0  0  0
  9 42  1  0  0  0  0
 10 24  2  0  0  0  0
 10 29  1  0  0  0  0
 10 43  1  0  0  0  0
 11 30  2  0  0  0  0
 11 44  1  0  0  0  0
 12 26  1  0  0  0  0
 12 31  2  0  0  0  0
 12 32  1  0  0  0  0
 13 14  1  0  0  0  0
 14 15  1  0  0  0  0
 16 45  1  0  0  0  0
 17 19  1  0  0  0  0
 17 46  1  0  0  0  0
 17 47  1  0  0  0  0
 18 20  1  0  0  0  0
 18 21  2  0  0  0  0
 19 22  1  0  0  0  0
 19 48  1  0  0  0  0
 20 23  1  0  0  0  0
 22 24  1  0  0  0  0
 23 26  1  0  0  0  0
 23 49  1  0  0  0  0
 23 50  1  0  0  0  0
 24 51  1  0  0  0  0
 25 28  2  0  0  0  0
 26 52  1  0  0  0  0
 26 53  1  0  0  0  0
 27 29  2  0  0  0  0
 27 54  1  0  0  0  0
 28 30  1  0  0  0  0
 28 55  1  0  0  0  0
 29 33  1  0  0  0  0
 30 56  1  0  0  0  0
 33 34  2  0  0  0  0
 33 35  1  0  0  0  0
 34 57  1  0  0  0  0
 34 60  1  0  0  0  0
 35 58  1  0  0  0  0
 35 59  1  0  0  0  0
M  CHG  1   1   1
M  END
$$$$
