4E7
 OpenBabel04111922433D

 38 39  0  0  1  0  0  0  0  0999 V2000
   -1.0497   38.0791  -11.5690 N   0  3  0  0  0  0  0  0  0  0  0  0
   -0.4002   39.2856  -12.3169 C   0  0  1  0  0  0  0  0  0  0  0  0
    0.0679   38.6800  -13.6531 C   0  0  2  0  0  0  0  0  0  0  0  0
   -1.4412   40.4386  -12.4380 C   0  0  0  0  0  0  0  0  0  0  0  0
   -2.4864   40.1538  -11.7580 O   0  0  0  0  0  0  0  0  0  0  0  0
   -1.1747   41.4127  -13.1732 O   0  0  0  0  0  0  0  0  0  0  0  0
    3.8013   40.4833  -14.9560 C   0  0  0  0  0  0  0  0  0  0  0  0
   -1.0395   36.9144  -12.4707 C   0  0  0  0  0  0  0  0  0  0  0  0
    0.1684   37.1574  -13.3563 C   0  0  1  0  0  0  0  0  0  0  0  0
    5.0395   39.3175  -13.0547 C   0  0  0  0  0  0  0  0  0  0  0  0
    2.6137   40.7236  -15.6589 C   0  0  0  0  0  0  0  0  0  0  0  0
    3.7857   39.6404  -13.8376 C   0  0  0  0  0  0  0  0  0  0  0  0
    5.0583   38.1842  -12.4701 O   0  0  0  0  0  0  0  0  0  0  0  0
    5.9544   40.1920  -13.0262 O   0  0  0  0  0  0  0  0  0  0  0  0
    1.3724   39.2921  -14.1275 C   0  0  0  0  0  0  0  0  0  0  0  0
    1.4093   40.1389  -15.2462 C   0  0  0  0  0  0  0  0  0  0  0  0
    2.5666   39.0639  -13.4382 C   0  0  0  0  0  0  0  0  0  0  0  0
    0.2321   36.2424  -14.5958 C   0  0  0  0  0  0  0  0  0  0  0  0
    0.1918   34.7432  -14.2419 C   0  0  0  0  0  0  0  0  0  0  0  0
    1.0386   33.8952  -15.1772 C   0  0  0  0  0  0  0  0  0  0  0  0
   -0.5768   37.9525  -10.6718 H   0  0  0  0  0  0  0  0  0  0  0  0
    0.4175   39.6059  -11.6624 H   0  0  0  0  0  0  0  0  0  0  0  0
   -0.7050   38.8436  -14.4176 H   0  0  0  0  0  0  0  0  0  0  0  0
    4.7303   40.9423  -15.2650 H   0  0  0  0  0  0  0  0  0  0  0  0
   -1.9793   36.9116  -13.0289 H   0  0  0  0  0  0  0  0  0  0  0  0
   -0.9555   36.0141  -11.8571 H   0  0  0  0  0  0  0  0  0  0  0  0
    1.0639   36.9451  -12.7570 H   0  0  0  0  0  0  0  0  0  0  0  0
    2.6288   41.3801  -16.5222 H   0  0  0  0  0  0  0  0  0  0  0  0
    0.4956   40.3794  -15.7896 H   0  0  0  0  0  0  0  0  0  0  0  0
    2.5971   38.4418  -12.5501 H   0  0  0  0  0  0  0  0  0  0  0  0
    1.1552   36.4649  -15.1458 H   0  0  0  0  0  0  0  0  0  0  0  0
   -0.5990   36.4677  -15.2736 H   0  0  0  0  0  0  0  0  0  0  0  0
   -0.8475   34.3891  -14.2874 H   0  0  0  0  0  0  0  0  0  0  0  0
    0.5421   34.5750  -13.2184 H   0  0  0  0  0  0  0  0  0  0  0  0
    0.9795   32.8336  -14.8940 H   0  0  0  0  0  0  0  0  0  0  0  0
    2.0924   34.1883  -15.1194 H   0  0  0  0  0  0  0  0  0  0  0  0
    0.7127   33.9886  -16.2173 H   0  0  0  0  0  0  0  0  0  0  0  0
   -2.0071   38.4609  -11.3674 H   0  0  0  0  0  0  0  0  0  0  0  0
  1  2  1  0  0  0  0
  1  8  1  0  0  0  0
  1 21  1  0  0  0  0
  1 38  1  0  0  0  0
  2  3  1  0  0  0  0
  2  4  1  0  0  0  0
  2 22  1  1  0  0  0
  3  9  1  0  0  0  0
  3 15  1  0  0  0  0
  3 23  1  6  0  0  0
  4  5  2  0  0  0  0
  4  6  1  0  0  0  0
  7 11  2  0  0  0  0
  7 12  1  0  0  0  0
  7 24  1  0  0  0  0
  8  9  1  0  0  0  0
  8 25  1  0  0  0  0
  8 26  1  0  0  0  0
  9 18  1  0  0  0  0
  9 27  1  1  0  0  0
 10 12  1  0  0  0  0
 10 13  2  0  0  0  0
 10 14  1  0  0  0  0
 11 16  1  0  0  0  0
 11 28  1  0  0  0  0
 12 17  2  0  0  0  0
 15 16  2  0  0  0  0
 15 17  1  0  0  0  0
 16 29  1  0  0  0  0
 17 30  1  0  0  0  0
 18 19  1  0  0  0  0
 18 31  1  0  0  0  0
 18 32  1  0  0  0  0
 19 20  1  0  0  0  0
 19 33  1  0  0  0  0
 19 34  1  0  0  0  0
 20 35  1  0  0  0  0
 20 36  1  0  0  0  0
 20 37  1  0  0  0  0
M  CHG  1   1   1
M  END
$$$$
