4EH
 OpenBabel04111922463D

 45 48  0  0  1  0  0  0  0  0999 V2000
   10.9285   43.5121  -34.1721 O   0  0  0  0  0  0  0  0  0  0  0  0
   10.7537   44.5248  -35.1698 C   0  0  2  0  0  0  0  0  0  0  0  0
   12.1049   45.2043  -35.3885 C   0  0  1  0  0  0  0  0  0  0  0  0
   12.2844   45.9298  -36.7222 C   0  0  0  0  0  0  0  0  0  0  0  0
   12.3943   44.8164  -38.1563 S   0  0  0  0  0  0  0  0  0  0  0  0
    9.8584   45.5943  -34.5811 C   0  0  0  0  0  0  0  0  0  0  0  0
   10.8141   46.3190  -33.6729 N   0  3  1  0  0  0  0  0  0  0  0  0
   12.1728   46.2698  -34.3013 C   0  0  0  0  0  0  0  0  0  0  0  0
   10.3600   47.6836  -33.2849 C   0  0  0  0  0  0  0  0  0  0  0  0
   10.4040   48.8267  -34.2661 C   0  0  0  0  0  0  0  0  0  0  0  0
    9.5981   49.1327  -35.4228 C   0  0  0  0  0  0  0  0  0  0  0  0
    8.6179   48.4044  -36.0120 N   0  0  0  0  0  0  0  0  0  0  0  0
    8.0674   49.0023  -37.1073 C   0  0  0  0  0  0  0  0  0  0  0  0
   11.2486   49.9177  -34.1014 C   0  0  0  0  0  0  0  0  0  0  0  0
   10.9979   50.8628  -35.0779 N   0  3  0  0  0  0  0  0  0  0  0  0
    9.9750   50.3910  -35.9270 C   0  0  0  0  0  0  0  0  0  0  0  0
    9.3516   50.9454  -37.0836 C   0  0  0  0  0  0  0  0  0  0  0  0
    8.3908   50.1994  -37.6452 N   0  0  0  0  0  0  0  0  0  0  0  0
    9.7242   52.1590  -37.5708 N   0  0  0  0  0  0  0  0  0  0  0  0
   14.1118   44.3583  -38.3917 C   0  0  0  0  0  0  0  0  0  0  0  0
   15.1660   44.8104  -37.6274 C   0  0  0  0  0  0  0  0  0  0  0  0
   16.4474   44.4178  -37.8624 N   0  0  0  0  0  0  0  0  0  0  0  0
   16.6363   43.5545  -38.8972 C   0  0  0  0  0  0  0  0  0  0  0  0
   15.5895   43.0994  -39.6651 C   0  0  0  0  0  0  0  0  0  0  0  0
   14.3159   43.4978  -39.4186 N   0  0  0  0  0  0  0  0  0  0  0  0
   10.0737   43.0561  -34.0320 H   0  0  0  0  0  0  0  0  0  0  0  0
   10.3365   44.0992  -36.0813 H   0  0  0  0  0  0  0  0  0  0  0  0
   12.9172   44.4825  -35.2608 H   0  0  0  0  0  0  0  0  0  0  0  0
   13.1578   46.5907  -36.6688 H   0  0  0  0  0  0  0  0  0  0  0  0
   11.4047   46.5654  -36.8970 H   0  0  0  0  0  0  0  0  0  0  0  0
    9.0344   45.1836  -33.9844 H   0  0  0  0  0  0  0  0  0  0  0  0
    9.4897   46.2841  -35.3307 H   0  0  0  0  0  0  0  0  0  0  0  0
   12.3831   47.2598  -34.7138 H   0  0  0  0  0  0  0  0  0  0  0  0
   12.9132   46.0329  -33.5345 H   0  0  0  0  0  0  0  0  0  0  0  0
   11.0092   47.9239  -32.4277 H   0  0  0  0  0  0  0  0  0  0  0  0
    9.3424   47.5535  -32.9214 H   0  0  0  0  0  0  0  0  0  0  0  0
    7.2720   48.4323  -37.6045 H   0  0  0  0  0  0  0  0  0  0  0  0
   11.9884   50.0904  -33.3243 H   0  0  0  0  0  0  0  0  0  0  0  0
   11.4692   51.7591  -35.1785 H   0  0  0  0  0  0  0  0  0  0  0  0
    9.2468   52.5028  -38.3939 H   0  0  0  0  0  0  0  0  0  0  0  0
   10.4401   52.7032  -37.1363 H   0  0  0  0  0  0  0  0  0  0  0  0
   15.0191   45.4975  -36.8003 H   0  0  0  0  0  0  0  0  0  0  0  0
   17.6568   43.2294  -39.0971 H   0  0  0  0  0  0  0  0  0  0  0  0
   15.7533   42.4025  -40.4866 H   0  0  0  0  0  0  0  0  0  0  0  0
   10.8770   45.7362  -32.8166 H   0  0  0  0  0  0  0  0  0  0  0  0
  1  2  1  0  0  0  0
  1 26  1  0  0  0  0
  2  3  1  0  0  0  0
  2  6  1  0  0  0  0
  2 27  1  6  0  0  0
  3  4  1  0  0  0  0
  3  8  1  0  0  0  0
  3 28  1  1  0  0  0
  4  5  1  0  0  0  0
  4 29  1  0  0  0  0
  4 30  1  0  0  0  0
  5 20  1  0  0  0  0
  6  7  1  0  0  0  0
  6 31  1  0  0  0  0
  6 32  1  0  0  0  0
  7  8  1  0  0  0  0
  7  9  1  0  0  0  0
  7 45  1  1  0  0  0
  8 33  1  0  0  0  0
  8 34  1  0  0  0  0
  9 10  1  0  0  0  0
  9 35  1  0  0  0  0
  9 36  1  0  0  0  0
 10 11  2  0  0  0  0
 10 14  1  0  0  0  0
 11 12  1  0  0  0  0
 11 16  1  0  0  0  0
 12 13  1  0  0  0  0
 13 18  2  0  0  0  0
 13 37  1  0  0  0  0
 14 15  2  0  0  0  0
 14 38  1  0  0  0  0
 15 16  1  0  0  0  0
 15 39  1  0  0  0  0
 16 17  2  0  0  0  0
 17 18  1  0  0  0  0
 17 19  1  0  0  0  0
 19 40  1  0  0  0  0
 19 41  1  0  0  0  0
 20 21  2  0  0  0  0
 20 25  1  0  0  0  0
 21 22  1  0  0  0  0
 21 42  1  0  0  0  0
 22 23  2  0  0  0  0
 23 24  1  0  0  0  0
 23 43  1  0  0  0  0
 24 25  2  0  0  0  0
 24 44  1  0  0  0  0
M  CHG  2   7   1  15   1
M  END
$$$$
