4EZ
 OpenBabel04111922463D

 44 45  0  0  1  0  0  0  0  0999 V2000
   -5.5136   17.2929  -24.3382 C   0  0  0  0  0  0  0  0  0  0  0  0
   -6.6785   18.1130  -24.7335 N   0  3  1  0  0  0  0  0  0  0  0  0
   -6.6505   19.4217  -23.9825 C   0  0  0  0  0  0  0  0  0  0  0  0
   -7.5165   19.4095  -22.7218 C   0  0  0  0  0  0  0  0  0  0  0  0
   -8.1079   20.8163  -22.5663 C   0  0  0  0  0  0  0  0  0  0  0  0
   -8.6223   21.8111  -20.3165 C   0  0  0  0  0  0  0  0  0  0  0  0
   -9.6086   21.8548  -19.1648 C   0  0  0  0  0  0  0  0  0  0  0  0
   -6.7505   18.2085  -26.2483 C   0  0  0  0  0  0  0  0  0  0  0  0
   -6.6625   19.5290  -26.9379 C   0  0  0  0  0  0  0  0  0  0  0  0
   -5.6591   20.5444  -26.8256 C   0  0  0  0  0  0  0  0  0  0  0  0
   -4.5574   20.5717  -26.0408 N   0  0  0  0  0  0  0  0  0  0  0  0
   -7.5759   20.0001  -27.8656 C   0  0  0  0  0  0  0  0  0  0  0  0
   -7.1793   21.2462  -28.2814 N   0  3  0  0  0  0  0  0  0  0  0  0
   -6.0218   21.6001  -27.6518 C   0  0  0  0  0  0  0  0  0  0  0  0
   -5.2414   22.7478  -27.7020 C   0  0  0  0  0  0  0  0  0  0  0  0
   -5.5204   23.8464  -28.4734 N   0  0  0  0  0  0  0  0  0  0  0  0
   -4.1442   22.7880  -26.9263 N   0  0  0  0  0  0  0  0  0  0  0  0
   -3.8626   21.7189  -26.1544 C   0  0  0  0  0  0  0  0  0  0  0  0
   -5.4896   17.0990  -22.9529 O   0  0  0  0  0  0  0  0  0  0  0  0
   -9.1385   20.9312  -21.4505 C   0  0  0  0  0  0  0  0  0  0  0  0
   -4.6078   17.8111  -24.6782 H   0  0  0  0  0  0  0  0  0  0  0  0
   -5.5958   16.3164  -24.8328 H   0  0  0  0  0  0  0  0  0  0  0  0
   -7.0193   20.1996  -24.6453 H   0  0  0  0  0  0  0  0  0  0  0  0
   -5.6093   19.6506  -23.7256 H   0  0  0  0  0  0  0  0  0  0  0  0
   -6.9000   19.1710  -21.8473 H   0  0  0  0  0  0  0  0  0  0  0  0
   -8.3157   18.6630  -22.7743 H   0  0  0  0  0  0  0  0  0  0  0  0
   -8.6036   21.0921  -23.5057 H   0  0  0  0  0  0  0  0  0  0  0  0
   -7.2885   21.5332  -22.4262 H   0  0  0  0  0  0  0  0  0  0  0  0
   -7.6600   21.4295  -19.9574 H   0  0  0  0  0  0  0  0  0  0  0  0
   -8.4526   22.8300  -20.6863 H   0  0  0  0  0  0  0  0  0  0  0  0
   -9.2192   22.4840  -18.3594 H   0  0  0  0  0  0  0  0  0  0  0  0
   -9.7787   20.8507  -18.7641 H   0  0  0  0  0  0  0  0  0  0  0  0
  -10.5704   22.2654  -19.4880 H   0  0  0  0  0  0  0  0  0  0  0  0
   -7.7065   17.7373  -26.5050 H   0  0  0  0  0  0  0  0  0  0  0  0
   -5.9802   17.5498  -26.6683 H   0  0  0  0  0  0  0  0  0  0  0  0
   -8.4758   19.5505  -28.2710 H   0  0  0  0  0  0  0  0  0  0  0  0
   -7.6712   21.8220  -28.9539 H   0  0  0  0  0  0  0  0  0  0  0  0
   -4.8417   24.5994  -28.4509 H   0  0  0  0  0  0  0  0  0  0  0  0
   -6.2866   23.8998  -29.1224 H   0  0  0  0  0  0  0  0  0  0  0  0
   -2.9631   21.8063  -25.5486 H   0  0  0  0  0  0  0  0  0  0  0  0
   -4.6439   16.6706  -22.7328 H   0  0  0  0  0  0  0  0  0  0  0  0
   -9.4262   19.9438  -21.0737 H   0  0  0  0  0  0  0  0  0  0  0  0
  -10.0472   21.3894  -21.8631 H   0  0  0  0  0  0  0  0  0  0  0  0
   -7.5018   17.5848  -24.4121 H   0  0  0  0  0  0  0  0  0  0  0  0
  1  2  1  0  0  0  0
  1 19  1  0  0  0  0
  1 21  1  0  0  0  0
  1 22  1  0  0  0  0
  2  3  1  0  0  0  0
  2  8  1  0  0  0  0
  2 44  1  1  0  0  0
  3  4  1  0  0  0  0
  3 23  1  0  0  0  0
  3 24  1  0  0  0  0
  4  5  1  0  0  0  0
  4 25  1  0  0  0  0
  4 26  1  0  0  0  0
  5 20  1  0  0  0  0
  5 27  1  0  0  0  0
  5 28  1  0  0  0  0
  6  7  1  0  0  0  0
  6 20  1  0  0  0  0
  6 29  1  0  0  0  0
  6 30  1  0  0  0  0
  7 31  1  0  0  0  0
  7 32  1  0  0  0  0
  7 33  1  0  0  0  0
  8  9  1  0  0  0  0
  8 34  1  0  0  0  0
  8 35  1  0  0  0  0
  9 10  2  0  0  0  0
  9 12  1  0  0  0  0
 10 11  1  0  0  0  0
 10 14  1  0  0  0  0
 11 18  1  0  0  0  0
 12 13  2  0  0  0  0
 12 36  1  0  0  0  0
 13 14  1  0  0  0  0
 13 37  1  0  0  0  0
 14 15  2  0  0  0  0
 15 16  1  0  0  0  0
 15 17  1  0  0  0  0
 16 38  1  0  0  0  0
 16 39  1  0  0  0  0
 17 18  2  0  0  0  0
 18 40  1  0  0  0  0
 19 41  1  0  0  0  0
 20 42  1  0  0  0  0
 20 43  1  0  0  0  0
M  CHG  2   2   1  13   1
M  END
$$$$
