4FH
 OpenBabel04111921183D

 15 15  0  0  0  0  0  0  0  0999 V2000
   14.7443    0.3963   17.0336 S   0  0  0  0  0  0  0  0  0  0  0  0
   15.4190    1.3460   15.8061 C   0  0  0  0  0  0  0  0  0  0  0  0
   15.2016    2.8276   15.7824 C   0  0  0  0  0  0  0  0  0  0  0  0
   15.7214    3.5935   14.8332 C   0  0  0  0  0  0  0  0  0  0  0  0
   15.5037    5.0751   14.8309 C   0  0  0  0  0  0  0  0  0  0  0  0
   14.9329    5.5032   16.0042 F   0  0  0  0  0  0  0  0  0  0  0  0
   16.6393    5.7959   14.6808 F   0  0  0  0  0  0  0  0  0  0  0  0
   14.6478    5.4670   13.8434 F   0  0  0  0  0  0  0  0  0  0  0  0
   16.5209    3.0133   13.7715 C   0  0  0  0  0  0  0  0  0  0  0  0
   16.7428    1.6826   13.7572 C   0  0  0  0  0  0  0  0  0  0  0  0
   16.2023    0.8822   14.7518 N   0  0  0  0  0  0  0  0  0  0  0  0
   16.4784   -0.4782   14.6620 O   0  0  0  0  0  0  0  0  0  0  0  0
   14.5942    3.2419   16.5867 H   0  0  0  0  0  0  0  0  0  0  0  0
   16.9288    3.6560   13.0161 H   0  0  0  0  0  0  0  0  0  0  0  0
   17.3348    1.2003   12.9896 H   0  0  0  0  0  0  0  0  0  0  0  0
  1  2  2  0  0  0  0
  2  3  1  0  0  0  0
  2 11  1  0  0  0  0
  3  4  2  0  0  0  0
  3 13  1  0  0  0  0
  4  5  1  0  0  0  0
  4  9  1  0  0  0  0
  5  6  1  0  0  0  0
  5  7  1  0  0  0  0
  5  8  1  0  0  0  0
  9 10  2  0  0  0  0
  9 14  1  0  0  0  0
 10 11  1  0  0  0  0
 10 15  1  0  0  0  0
 11 12  1  0  0  0  0
M  END
$$$$
