4GU
 OpenBabel04111919093D

 25 27  0  0  0  0  0  0  0  0999 V2000
   13.1138   26.8998  -42.1886 C   0  0  0  0  0  0  0  0  0  0  0  0
   14.1430   26.7681  -41.2487 C   0  0  0  0  0  0  0  0  0  0  0  0
   15.2467   26.0201  -41.6135 C   0  0  0  0  0  0  0  0  0  0  0  0
   11.9538   27.6262  -41.9088 N   0  0  0  0  0  0  0  0  0  0  0  0
   15.5966   26.7187  -39.4779 N   0  0  0  0  0  0  0  0  0  0  0  0
   13.2968   26.2910  -43.3917 N   0  0  0  0  0  0  0  0  0  0  0  0
   15.4605   25.4041  -42.7842 N   0  0  0  0  0  0  0  0  0  0  0  0
   16.0770   26.0241  -40.5316 N   0  3  0  0  0  0  0  0  0  0  0  0
   10.6792   27.5836  -42.5016 C   0  0  0  0  0  0  0  0  0  0  0  0
   14.4280   25.5966  -43.6213 C   0  0  0  0  0  0  0  0  0  0  0  0
   14.4156   27.1647  -39.9230 C   0  0  0  0  0  0  0  0  0  0  0  0
    9.7301   28.5576  -42.1534 C   0  0  0  0  0  0  0  0  0  0  0  0
   10.0502   29.4878  -41.2390 F   0  0  0  0  0  0  0  0  0  0  0  0
   10.3041   26.6298  -43.4548 C   0  0  0  0  0  0  0  0  0  0  0  0
    8.4569   28.5810  -42.7167 C   0  0  0  0  0  0  0  0  0  0  0  0
    9.0288   26.6412  -44.0244 C   0  0  0  0  0  0  0  0  0  0  0  0
    8.1045   27.6161  -43.6581 C   0  0  0  0  0  0  0  0  0  0  0  0
   11.9946   28.2185  -41.0877 H   0  0  0  0  0  0  0  0  0  0  0  0
   16.9770   25.5651  -40.4533 H   0  0  0  0  0  0  0  0  0  0  0  0
   14.5082   25.1351  -44.6012 H   0  0  0  0  0  0  0  0  0  0  0  0
   13.7966   27.7525  -39.2577 H   0  0  0  0  0  0  0  0  0  0  0  0
   10.9900   25.8452  -43.7551 H   0  0  0  0  0  0  0  0  0  0  0  0
    7.7511   29.3481  -42.4166 H   0  0  0  0  0  0  0  0  0  0  0  0
    8.7650   25.8815  -44.7562 H   0  0  0  0  0  0  0  0  0  0  0  0
    7.1148   27.6215  -44.1040 H   0  0  0  0  0  0  0  0  0  0  0  0
  1  2  1  0  0  0  0
  1  4  1  0  0  0  0
  1  6  2  0  0  0  0
  2  3  1  0  0  0  0
  2 11  2  0  0  0  0
  3  7  1  0  0  0  0
  3  8  2  0  0  0  0
  4  9  1  0  0  0  0
  4 18  1  0  0  0  0
  5  8  1  0  0  0  0
  5 11  1  0  0  0  0
  6 10  1  0  0  0  0
  7 10  2  0  0  0  0
  8 19  1  0  0  0  0
  9 12  2  0  0  0  0
  9 14  1  0  0  0  0
 10 20  1  0  0  0  0
 11 21  1  0  0  0  0
 12 13  1  0  0  0  0
 12 15  1  0  0  0  0
 14 16  2  0  0  0  0
 14 22  1  0  0  0  0
 15 17  2  0  0  0  0
 15 23  1  0  0  0  0
 16 17  1  0  0  0  0
 16 24  1  0  0  0  0
 17 25  1  0  0  0  0
M  CHG  1   8   1
M  END
$$$$
