4HW
 OpenBabel04111922473D

 42 45  0  0  0  0  0  0  0  0999 V2000
   16.6271   13.2136    5.6465 C   0  0  0  0  0  0  0  0  0  0  0  0
   15.4203   13.7704    5.2266 C   0  0  0  0  0  0  0  0  0  0  0  0
   15.3934   14.8138    4.2854 C   0  0  0  0  0  0  0  0  0  0  0  0
   11.3685   12.9902    1.6280 N   0  0  0  0  0  0  0  0  0  0  0  0
   13.2124   13.1059    3.1414 C   0  0  0  0  0  0  0  0  0  0  0  0
   13.1941   14.4825    3.0488 C   0  0  0  0  0  0  0  0  0  0  0  0
   12.2381   15.1087    2.3438 N   0  0  0  0  0  0  0  0  0  0  0  0
   17.8136   14.7881    4.2614 C   0  0  0  0  0  0  0  0  0  0  0  0
   16.6075   15.3521    3.8610 C   0  0  0  0  0  0  0  0  0  0  0  0
   12.3318   12.3941    2.3518 C   0  0  0  0  0  0  0  0  0  0  0  0
   11.3568   14.3309    1.6899 C   0  0  0  0  0  0  0  0  0  0  0  0
   10.8527   10.3238    0.6617 N   0  0  0  0  0  0  0  0  0  0  0  0
   11.8618   10.0465    1.4870 C   0  0  0  0  0  0  0  0  0  0  0  0
   12.4050    8.8644    1.7124 N   0  0  0  0  0  0  0  0  0  0  0  0
   13.4356    9.1343    2.5741 C   0  0  0  0  0  0  0  0  0  0  0  0
   14.2360    8.1267    2.9949 N   0  0  0  0  0  0  0  0  0  0  0  0
   15.3629    8.1162    3.8541 C   0  0  0  0  0  0  0  0  0  0  0  0
   15.9500    9.2708    4.3632 C   0  0  0  0  0  0  0  0  0  0  0  0
   17.0451    9.2221    5.2423 C   0  0  0  0  0  0  0  0  0  0  0  0
   17.5620    7.9909    5.6299 C   0  0  0  0  0  0  0  0  0  0  0  0
   17.0020    6.8201    5.1306 C   0  0  0  0  0  0  0  0  0  0  0  0
   15.9115    6.8857    4.2457 C   0  0  0  0  0  0  0  0  0  0  0  0
   13.5370   10.4045    2.9283 N   0  0  0  0  0  0  0  0  0  0  0  0
   12.5315   10.9919    2.2551 N   0  3  0  0  0  0  0  0  0  0  0  0
   14.2292   15.2366    3.6205 N   0  0  0  0  0  0  0  0  0  0  0  0
   17.8261   13.7098    5.1426 C   0  0  0  0  0  0  0  0  0  0  0  0
   16.6429   12.3818    6.3436 H   0  0  0  0  0  0  0  0  0  0  0  0
   14.4973   13.3553    5.6287 H   0  0  0  0  0  0  0  0  0  0  0  0
   13.9591   12.6069    3.7353 H   0  0  0  0  0  0  0  0  0  0  0  0
   18.7469   15.1835    3.8661 H   0  0  0  0  0  0  0  0  0  0  0  0
   16.6009   16.1842    3.1642 H   0  0  0  0  0  0  0  0  0  0  0  0
   10.5755   14.8188    1.1178 H   0  0  0  0  0  0  0  0  0  0  0  0
   10.3978    9.5896    0.1234 H   0  0  0  0  0  0  0  0  0  0  0  0
   10.5457   11.2879    0.4936 H   0  0  0  0  0  0  0  0  0  0  0  0
   13.9751    7.2053    2.6587 H   0  0  0  0  0  0  0  0  0  0  0  0
   15.5772   10.2573    4.0822 H   0  0  0  0  0  0  0  0  0  0  0  0
   17.4866   10.1397    5.6240 H   0  0  0  0  0  0  0  0  0  0  0  0
   18.4035    7.9428    6.3179 H   0  0  0  0  0  0  0  0  0  0  0  0
   17.4096    5.8556    5.4314 H   0  0  0  0  0  0  0  0  0  0  0  0
   15.4958    5.9546    3.8719 H   0  0  0  0  0  0  0  0  0  0  0  0
   14.2330   16.1984    3.3004 H   0  0  0  0  0  0  0  0  0  0  0  0
   18.7726   13.2736    5.4456 H   0  0  0  0  0  0  0  0  0  0  0  0
  1  2  2  0  0  0  0
  1 26  1  0  0  0  0
  1 27  1  0  0  0  0
  2  3  1  0  0  0  0
  2 28  1  0  0  0  0
  3  9  2  0  0  0  0
  3 25  1  0  0  0  0
  4 10  2  0  0  0  0
  4 11  1  0  0  0  0
  5  6  2  0  0  0  0
  5 10  1  0  0  0  0
  5 29  1  0  0  0  0
  6  7  1  0  0  0  0
  6 25  1  0  0  0  0
  7 11  2  0  0  0  0
  8  9  1  0  0  0  0
  8 26  2  0  0  0  0
  8 30  1  0  0  0  0
  9 31  1  0  0  0  0
 10 24  1  0  0  0  0
 11 32  1  0  0  0  0
 12 13  1  0  0  0  0
 12 33  1  0  0  0  0
 12 34  1  0  0  0  0
 13 14  1  0  0  0  0
 13 24  2  0  0  0  0
 14 15  1  0  0  0  0
 15 16  1  0  0  0  0
 15 23  2  0  0  0  0
 16 17  1  0  0  0  0
 16 35  1  0  0  0  0
 17 18  2  0  0  0  0
 17 22  1  0  0  0  0
 18 19  1  0  0  0  0
 18 36  1  0  0  0  0
 19 20  2  0  0  0  0
 19 37  1  0  0  0  0
 20 21  1  0  0  0  0
 20 38  1  0  0  0  0
 21 22  2  0  0  0  0
 21 39  1  0  0  0  0
 22 40  1  0  0  0  0
 23 24  1  0  0  0  0
 25 41  1  0  0  0  0
 26 42  1  0  0  0  0
M  CHG  1  24   1
M  END
$$$$
