4K0
 OpenBabel04111917443D

 39 43  0  0  0  0  0  0  0  0999 V2000
   19.4126   80.5852   -1.7744 N   0  0  0  0  0  0  0  0  0  0  0  0
   19.2370   80.7883   -0.6484 C   0  0  0  0  0  0  0  0  0  0  0  0
   19.0264   81.0507    0.7490 C   0  0  0  0  0  0  0  0  0  0  0  0
   19.4883   82.2377    1.3179 C   0  0  0  0  0  0  0  0  0  0  0  0
   18.3589   80.1257    1.5582 C   0  0  0  0  0  0  0  0  0  0  0  0
   18.1548   80.3804    2.9288 C   0  0  0  0  0  0  0  0  0  0  0  0
   18.6206   81.5717    3.5088 C   0  0  0  0  0  0  0  0  0  0  0  0
   19.2854   82.4917    2.6804 C   0  0  0  0  0  0  0  0  0  0  0  0
   18.4570   81.9386    4.9616 C   0  0  0  0  0  0  0  0  0  0  0  0
   18.8690   83.1118    5.3776 N   0  0  0  0  0  0  0  0  0  0  0  0
   18.6817   83.3178    6.7234 N   0  3  0  0  0  0  0  0  0  0  0  0
   18.0944   82.4192    7.6066 C   0  0  0  0  0  0  0  0  0  0  0  0
   17.6523   81.2012    7.1951 N   0  0  0  0  0  0  0  0  0  0  0  0
   17.8230   80.9520    5.9351 C   0  0  0  0  0  0  0  0  0  0  0  0
   19.0039   84.4249    7.4807 C   0  0  0  0  0  0  0  0  0  0  0  0
   18.6239   84.2168    8.7264 N   0  0  0  0  0  0  0  0  0  0  0  0
   18.0634   82.9658    8.8034 N   0  0  0  0  0  0  0  0  0  0  0  0
   19.6516   85.6660    6.9739 C   0  0  0  0  0  0  0  0  0  0  0  0
   21.1487   85.6054    7.0365 C   0  0  0  0  0  0  0  0  0  0  0  0
   21.9439   85.7565    8.1618 C   0  0  0  0  0  0  0  0  0  0  0  0
   22.0381   85.3895    5.9412 C   0  0  0  0  0  0  0  0  0  0  0  0
   21.8812   85.1852    4.5605 C   0  0  0  0  0  0  0  0  0  0  0  0
   23.0243   84.9922    3.7896 C   0  0  0  0  0  0  0  0  0  0  0  0
   23.3360   85.3933    6.4399 C   0  0  0  0  0  0  0  0  0  0  0  0
   23.2585   85.6170    7.7891 N   0  3  0  0  0  0  0  0  0  0  0  0
   24.4768   85.2137    5.7437 N   0  0  0  0  0  0  0  0  0  0  0  0
   24.2617   85.0145    4.4188 C   0  0  0  0  0  0  0  0  0  0  0  0
   20.0092   82.9772    0.7119 H   0  0  0  0  0  0  0  0  0  0  0  0
   17.9886   79.1964    1.1226 H   0  0  0  0  0  0  0  0  0  0  0  0
   17.6244   79.6213    3.4971 H   0  0  0  0  0  0  0  0  0  0  0  0
   19.6573   83.4276    3.0904 H   0  0  0  0  0  0  0  0  0  0  0  0
   17.4979   79.9825    5.5364 H   0  0  0  0  0  0  0  0  0  0  0  0
   19.3177   86.5105    7.5937 H   0  0  0  0  0  0  0  0  0  0  0  0
   19.3177   85.9010    5.9570 H   0  0  0  0  0  0  0  0  0  0  0  0
   21.6745   85.9347    9.1963 H   0  0  0  0  0  0  0  0  0  0  0  0
   20.8946   85.1809    4.1151 H   0  0  0  0  0  0  0  0  0  0  0  0
   22.9489   84.8258    2.7202 H   0  0  0  0  0  0  0  0  0  0  0  0
   24.0595   85.6615    8.4025 H   0  0  0  0  0  0  0  0  0  0  0  0
   25.1653   84.8648    3.8293 H   0  0  0  0  0  0  0  0  0  0  0  0
  1  2  3  0  0  0  0
  2  3  1  0  0  0  0
  3  4  2  0  0  0  0
  3  5  1  0  0  0  0
  4  8  1  0  0  0  0
  4 28  1  0  0  0  0
  5  6  2  0  0  0  0
  5 29  1  0  0  0  0
  6  7  1  0  0  0  0
  6 30  1  0  0  0  0
  7  8  2  0  0  0  0
  7  9  1  0  0  0  0
  8 31  1  0  0  0  0
  9 10  2  0  0  0  0
  9 14  1  0  0  0  0
 10 11  1  0  0  0  0
 11 12  1  0  0  0  0
 11 15  2  0  0  0  0
 12 13  1  0  0  0  0
 12 17  2  0  0  0  0
 13 14  2  0  0  0  0
 14 32  1  0  0  0  0
 15 16  1  0  0  0  0
 15 18  1  0  0  0  0
 16 17  1  0  0  0  0
 18 19  1  0  0  0  0
 18 33  1  0  0  0  0
 18 34  1  0  0  0  0
 19 20  2  0  0  0  0
 19 21  1  0  0  0  0
 20 25  1  0  0  0  0
 20 35  1  0  0  0  0
 21 22  2  0  0  0  0
 21 24  1  0  0  0  0
 22 23  1  0  0  0  0
 22 36  1  0  0  0  0
 23 27  2  0  0  0  0
 23 37  1  0  0  0  0
 24 25  2  0  0  0  0
 24 26  1  0  0  0  0
 25 38  1  0  0  0  0
 26 27  1  0  0  0  0
 27 39  1  0  0  0  0
M  CHG  2  11   1  25   1
M  END
$$$$
