4KB
 OpenBabel04111922513D

 40 42  0  0  0  0  0  0  0  0999 V2000
   18.6088   11.0568   11.6263 C   0  0  0  0  0  0  0  0  0  0  0  0
   18.5585    9.9528   12.4871 C   0  0  0  0  0  0  0  0  0  0  0  0
   16.4291    7.1234   13.1182 C   0  0  0  0  0  0  0  0  0  0  0  0
   16.1866    6.0343   14.0846 C   0  0  0  0  0  0  0  0  0  0  0  0
   17.9047    8.6885   11.9914 C   0  0  0  0  0  0  0  0  0  0  0  0
   18.7660    7.5659   14.0150 C   0  0  0  0  0  0  0  0  0  0  0  0
   19.0582    8.8824   14.7250 C   0  0  0  0  0  0  0  0  0  0  0  0
   19.1389   10.0407   13.7668 C   0  0  0  0  0  0  0  0  0  0  0  0
   15.4811    7.4491   12.4030 O   0  0  0  0  0  0  0  0  0  0  0  0
   17.0417    4.9276   14.1798 C   0  0  0  0  0  0  0  0  0  0  0  0
   16.7377    3.8879   15.0626 C   0  0  0  0  0  0  0  0  0  0  0  0
   15.0115    6.0973   14.8368 C   0  0  0  0  0  0  0  0  0  0  0  0
   14.6854    5.0456   15.6845 C   0  0  0  0  0  0  0  0  0  0  0  0
   15.5456    3.9520   15.7998 C   0  0  0  0  0  0  0  0  0  0  0  0
   15.0463    2.6378   16.8757 S   0  0  0  0  0  0  0  0  0  0  0  0
   15.6363    1.2523   16.1782 N   0  0  0  0  0  0  0  0  0  0  0  0
   13.6090    2.5320   16.8167 O   0  0  0  0  0  0  0  0  0  0  0  0
   15.7610    2.8078   18.1236 O   0  0  0  0  0  0  0  0  0  0  0  0
   17.6795    7.7132   13.0457 N   0  0  0  0  0  0  0  0  0  0  0  0
   19.7376   11.2351   14.1800 C   0  0  0  0  0  0  0  0  0  0  0  0
   19.7792   12.3208   13.3115 C   0  0  0  0  0  0  0  0  0  0  0  0
   20.3892   13.4739   13.7110 O   0  0  0  0  0  0  0  0  0  0  0  0
   19.2137   12.2361   12.0433 C   0  0  0  0  0  0  0  0  0  0  0  0
   19.2800   13.3063   11.1976 O   0  0  0  0  0  0  0  0  0  0  0  0
   18.1697   10.9800   10.6348 H   0  0  0  0  0  0  0  0  0  0  0  0
   18.5601    8.2174   11.2489 H   0  0  0  0  0  0  0  0  0  0  0  0
   16.9651    8.9482   11.4899 H   0  0  0  0  0  0  0  0  0  0  0  0
   18.5380    6.8284   14.7846 H   0  0  0  0  0  0  0  0  0  0  0  0
   19.6462    7.2138   13.4632 H   0  0  0  0  0  0  0  0  0  0  0  0
   20.0040    8.7810   15.2725 H   0  0  0  0  0  0  0  0  0  0  0  0
   18.2672    9.0927   15.4546 H   0  0  0  0  0  0  0  0  0  0  0  0
   17.9429    4.8732   13.5719 H   0  0  0  0  0  0  0  0  0  0  0  0
   17.4249    3.0542   15.1584 H   0  0  0  0  0  0  0  0  0  0  0  0
   14.3486    6.9549   14.7504 H   0  0  0  0  0  0  0  0  0  0  0  0
   13.7549    5.0820   16.2472 H   0  0  0  0  0  0  0  0  0  0  0  0
   15.4438    0.3870   16.6752 H   0  0  0  0  0  0  0  0  0  0  0  0
   16.1407    1.2563   15.3019 H   0  0  0  0  0  0  0  0  0  0  0  0
   20.1509   11.3177   15.1817 H   0  0  0  0  0  0  0  0  0  0  0  0
   21.2512   13.2177   14.0756 H   0  0  0  0  0  0  0  0  0  0  0  0
   18.8080   13.0835   10.3806 H   0  0  0  0  0  0  0  0  0  0  0  0
  1  2  2  0  0  0  0
  1 23  1  0  0  0  0
  1 25  1  0  0  0  0
  2  5  1  0  0  0  0
  2  8  1  0  0  0  0
  3  4  1  0  0  0  0
  3  9  2  0  0  0  0
  3 19  1  0  0  0  0
  4 10  2  0  0  0  0
  4 12  1  0  0  0  0
  5 19  1  0  0  0  0
  5 26  1  0  0  0  0
  5 27  1  0  0  0  0
  6  7  1  0  0  0  0
  6 19  1  0  0  0  0
  6 28  1  0  0  0  0
  6 29  1  0  0  0  0
  7  8  1  0  0  0  0
  7 30  1  0  0  0  0
  7 31  1  0  0  0  0
  8 20  2  0  0  0  0
 10 11  1  0  0  0  0
 10 32  1  0  0  0  0
 11 14  2  0  0  0  0
 11 33  1  0  0  0  0
 12 13  2  0  0  0  0
 12 34  1  0  0  0  0
 13 14  1  0  0  0  0
 13 35  1  0  0  0  0
 14 15  1  0  0  0  0
 15 16  1  0  0  0  0
 15 17  2  0  0  0  0
 15 18  2  0  0  0  0
 16 36  1  0  0  0  0
 16 37  1  0  0  0  0
 20 21  1  0  0  0  0
 20 38  1  0  0  0  0
 21 22  1  0  0  0  0
 21 23  2  0  0  0  0
 22 39  1  0  0  0  0
 23 24  1  0  0  0  0
 24 40  1  0  0  0  0
M  END
$$$$
