4L7
 OpenBabel04111922093D

 39 42  0  0  1  0  0  0  0  0999 V2000
  -25.1190   10.9638    2.6778 C   0  0  0  0  0  0  0  0  0  0  0  0
  -25.6361    9.5363    2.5723 C   0  0  1  0  0  0  0  0  0  0  0  0
  -24.4719    8.5666    2.6707 C   0  0  0  0  0  0  0  0  0  0  0  0
  -26.4060    7.5780    3.7520 C   0  0  0  0  0  0  0  0  0  0  0  0
  -22.0868   14.3337   -0.7496 Br  0  0  0  0  0  0  0  0  0  0  0  0
  -23.1972   11.7075   -0.4850 C   0  0  0  0  0  0  0  0  0  0  0  0
  -23.9849   10.8631    0.3544 C   0  0  0  0  0  0  0  0  0  0  0  0
  -24.3357   11.4724    1.5496 C   0  0  0  0  0  0  0  0  0  0  0  0
  -23.0077   12.9367    0.0892 C   0  0  0  0  0  0  0  0  0  0  0  0
  -25.3448   11.6091    3.6991 O   0  0  0  0  0  0  0  0  0  0  0  0
  -25.0667    7.2811    3.1495 N   0  3  0  0  0  0  0  0  0  0  0  0
  -32.8999   10.1960    4.6430 O   0  0  0  0  0  0  0  0  0  0  0  0
  -32.2357   10.0048    3.6338 C   0  0  0  0  0  0  0  0  0  0  0  0
  -32.7997    9.8423    2.3962 N   0  3  0  0  0  0  0  0  0  0  0  0
  -32.0716    9.5467    1.2777 C   0  0  0  0  0  0  0  0  0  0  0  0
  -30.7873    9.4032    1.2723 N   0  0  0  0  0  0  0  0  0  0  0  0
  -30.1114    9.5747    2.4907 C   0  0  0  0  0  0  0  0  0  0  0  0
  -28.7308    9.3866    2.5062 C   0  0  0  0  0  0  0  0  0  0  0  0
  -30.7655    9.8923    3.6784 C   0  0  0  0  0  0  0  0  0  0  0  0
  -30.0514   10.0561    4.8675 C   0  0  0  0  0  0  0  0  0  0  0  0
  -28.6679    9.8567    4.8725 C   0  0  0  0  0  0  0  0  0  0  0  0
  -27.9899    9.4919    3.6936 C   0  0  0  0  0  0  0  0  0  0  0  0
  -26.5266    9.1069    3.7537 C   0  0  2  0  0  0  0  0  0  0  0  0
  -23.6993   13.0680    1.6270 S   0  0  0  0  0  0  0  0  0  0  0  0
  -26.1521    9.4156    1.6145 H   0  0  0  0  0  0  0  0  0  0  0  0
  -23.7128    8.8660    3.4051 H   0  0  0  0  0  0  0  0  0  0  0  0
  -23.9908    8.3552    1.7144 H   0  0  0  0  0  0  0  0  0  0  0  0
  -26.4310    7.1417    4.7548 H   0  0  0  0  0  0  0  0  0  0  0  0
  -27.1458    7.0788    3.1153 H   0  0  0  0  0  0  0  0  0  0  0  0
  -22.8206   11.4269   -1.4628 H   0  0  0  0  0  0  0  0  0  0  0  0
  -24.2704    9.8642    0.0536 H   0  0  0  0  0  0  0  0  0  0  0  0
  -25.1754    6.6087    2.3740 H   0  0  0  0  0  0  0  0  0  0  0  0
  -33.8083    9.9169    2.3494 H   0  0  0  0  0  0  0  0  0  0  0  0
  -32.6736    9.4296    0.3638 H   0  0  0  0  0  0  0  0  0  0  0  0
  -28.2678    9.1140    1.5608 H   0  0  0  0  0  0  0  0  0  0  0  0
  -30.5733   10.3233    5.7851 H   0  0  0  0  0  0  0  0  0  0  0  0
  -28.1346    9.9714    5.8162 H   0  0  0  0  0  0  0  0  0  0  0  0
  -26.0962    9.4823    4.6933 H   0  0  0  0  0  0  0  0  0  0  0  0
  -24.4480    6.8217    3.8357 H   0  0  0  0  0  0  0  0  0  0  0  0
  1  2  1  0  0  0  0
  1  8  1  0  0  0  0
  1 10  2  0  0  0  0
  2  3  1  0  0  0  0
  2 23  1  0  0  0  0
  2 25  1  6  0  0  0
  3 11  1  0  0  0  0
  3 26  1  0  0  0  0
  3 27  1  0  0  0  0
  4 11  1  0  0  0  0
  4 23  1  0  0  0  0
  4 28  1  0  0  0  0
  4 29  1  0  0  0  0
  5  9  1  0  0  0  0
  6  7  1  0  0  0  0
  6  9  2  0  0  0  0
  6 30  1  0  0  0  0
  7  8  2  0  0  0  0
  7 31  1  0  0  0  0
  8 24  1  0  0  0  0
  9 24  1  0  0  0  0
 11 32  1  0  0  0  0
 11 39  1  0  0  0  0
 12 13  2  0  0  0  0
 13 14  1  0  0  0  0
 13 19  1  0  0  0  0
 14 15  1  0  0  0  0
 14 33  1  0  0  0  0
 15 16  2  0  0  0  0
 15 34  1  0  0  0  0
 16 17  1  0  0  0  0
 17 18  2  0  0  0  0
 17 19  1  0  0  0  0
 18 22  1  0  0  0  0
 18 35  1  0  0  0  0
 19 20  2  0  0  0  0
 20 21  1  0  0  0  0
 20 36  1  0  0  0  0
 21 22  2  0  0  0  0
 21 37  1  0  0  0  0
 22 23  1  0  0  0  0
 23 38  1  1  0  0  0
M  CHG  2  11   1  14   1
M  END
$$$$
