4LC
 OpenBabel04111922523D

 62 67  0  0  1  0  0  0  0  0999 V2000
  -10.2271  -10.3477   30.4342 C   0  0  0  0  0  0  0  0  0  0  0  0
  -10.0541   -8.8928   30.1417 C   0  0  0  0  0  0  0  0  0  0  0  0
  -12.5043   -8.6183   30.4285 C   0  0  0  0  0  0  0  0  0  0  0  0
  -10.8325  -13.5920   27.3445 C   0  0  0  0  0  0  0  0  0  0  0  0
  -10.8071  -13.6493   28.7958 N   0  3  0  0  0  0  0  0  0  0  0  0
  -10.9542  -14.7518   29.6172 C   0  0  0  0  0  0  0  0  0  0  0  0
  -10.7614  -14.4369   30.8901 N   0  0  0  0  0  0  0  0  0  0  0  0
  -10.5600  -13.0889   30.9108 C   0  0  0  0  0  0  0  0  0  0  0  0
  -10.3560  -12.2154   31.9942 C   0  0  0  0  0  0  0  0  0  0  0  0
  -10.1684  -10.8442   31.7403 C   0  0  0  0  0  0  0  0  0  0  0  0
  -10.4456  -11.2054   29.3525 C   0  0  0  0  0  0  0  0  0  0  0  0
  -10.5925  -12.5689   29.6186 C   0  0  0  0  0  0  0  0  0  0  0  0
   -8.9328   -8.4680   29.8833 O   0  0  0  0  0  0  0  0  0  0  0  0
  -11.1846   -8.0943   30.1626 N   0  0  0  0  0  0  0  0  0  0  0  0
  -13.1862   -7.7561   31.4703 C   0  0  0  0  0  0  0  0  0  0  0  0
  -13.2628   -6.3890   31.0347 O   0  0  0  0  0  0  0  0  0  0  0  0
  -11.9565   -5.8128   30.7905 C   0  0  2  0  0  0  0  0  0  0  0  0
  -11.1336   -6.6613   29.7859 C   0  0  2  0  0  0  0  0  0  0  0  0
  -11.6401   -6.4421   28.3482 C   0  0  0  0  0  0  0  0  0  0  0  0
  -11.0279   -7.3762   27.4584 O   0  0  0  0  0  0  0  0  0  0  0  0
  -11.2648   -5.5026   32.1061 C   0  0  0  0  0  0  0  0  0  0  0  0
  -11.9163   -4.7111   33.0574 C   0  0  0  0  0  0  0  0  0  0  0  0
  -11.2892   -4.3686   34.2527 C   0  0  0  0  0  0  0  0  0  0  0  0
  -10.0041   -4.8211   34.5207 C   0  0  0  0  0  0  0  0  0  0  0  0
   -9.3365   -5.5937   33.5814 C   0  0  0  0  0  0  0  0  0  0  0  0
   -9.9682   -5.9405   32.3914 C   0  0  0  0  0  0  0  0  0  0  0  0
  -11.1095  -16.1537   29.1477 C   0  0  2  0  0  0  0  0  0  0  0  0
  -10.3971  -17.2006   29.6845 C   0  0  0  0  0  0  0  0  0  0  0  0
  -10.7551  -18.3455   29.0225 N   0  3  0  0  0  0  0  0  0  0  0  0
  -11.6150  -18.0217   27.9894 C   0  0  1  0  0  0  0  0  0  0  0  0
  -12.1900  -18.8355   27.0050 C   0  0  0  0  0  0  0  0  0  0  0  0
  -13.0725  -18.2410   26.0946 C   0  0  1  0  0  0  0  0  0  0  0  0
  -13.3837  -16.8859   26.1807 C   0  0  0  0  0  0  0  0  0  0  0  0
  -12.8172  -16.0961   27.1802 C   0  0  0  0  0  0  0  0  0  0  0  0
  -11.8912  -16.6582   28.0860 C   0  0  2  0  0  0  0  0  0  0  0  0
  -13.6205  -19.0209   25.0481 C   0  0  0  0  0  0  0  0  0  0  0  0
  -14.0626  -19.6504   24.1534 N   0  0  0  0  0  0  0  0  0  0  0  0
  -12.4367   -9.6387   30.7917 H   0  0  0  0  0  0  0  0  0  0  0  0
  -13.0779   -8.6038   29.4969 H   0  0  0  0  0  0  0  0  0  0  0  0
  -10.9891  -14.5785   26.9153 H   0  0  0  0  0  0  0  0  0  0  0  0
   -9.8836  -13.2034   26.9613 H   0  0  0  0  0  0  0  0  0  0  0  0
  -11.6507  -12.9299   27.0291 H   0  0  0  0  0  0  0  0  0  0  0  0
  -10.3471  -12.5914   33.0119 H   0  0  0  0  0  0  0  0  0  0  0  0
   -9.9679  -10.1794   32.5728 H   0  0  0  0  0  0  0  0  0  0  0  0
  -10.4918  -10.8262   28.3428 H   0  0  0  0  0  0  0  0  0  0  0  0
  -12.6347   -7.8171   32.4137 H   0  0  0  0  0  0  0  0  0  0  0  0
  -14.2041   -8.1307   31.6266 H   0  0  0  0  0  0  0  0  0  0  0  0
  -12.1282   -4.8437   30.3077 H   0  0  0  0  0  0  0  0  0  0  0  0
  -10.1031   -6.3039   29.8056 H   0  0  0  0  0  0  0  0  0  0  0  0
  -11.3845   -5.4273   28.0208 H   0  0  0  0  0  0  0  0  0  0  0  0
  -12.7246   -6.5748   28.3055 H   0  0  0  0  0  0  0  0  0  0  0  0
  -11.3614   -7.2115   26.5613 H   0  0  0  0  0  0  0  0  0  0  0  0
  -12.9241   -4.3584   32.8633 H   0  0  0  0  0  0  0  0  0  0  0  0
  -11.8029   -3.7450   34.9745 H   0  0  0  0  0  0  0  0  0  0  0  0
   -9.5259   -4.5719   35.4617 H   0  0  0  0  0  0  0  0  0  0  0  0
   -8.3222   -5.9238   33.7753 H   0  0  0  0  0  0  0  0  0  0  0  0
   -9.4321   -6.5603   31.6812 H   0  0  0  0  0  0  0  0  0  0  0  0
   -9.6626  -17.1799   30.4777 H   0  0  0  0  0  0  0  0  0  0  0  0
  -10.4530  -19.2885   29.2469 H   0  0  0  0  0  0  0  0  0  0  0  0
  -11.9534  -19.8906   26.9411 H   0  0  0  0  0  0  0  0  0  0  0  0
  -14.0694  -16.4361   25.4672 H   0  0  0  0  0  0  0  0  0  0  0  0
  -13.0690  -15.0393   27.2400 H   0  0  0  0  0  0  0  0  0  0  0  0
  1  2  1  0  0  0  0
  1 10  2  0  0  0  0
  1 11  1  0  0  0  0
  2 13  2  0  0  0  0
  2 14  1  0  0  0  0
  3 14  1  0  0  0  0
  3 15  1  0  0  0  0
  3 38  1  0  0  0  0
  3 39  1  0  0  0  0
  4  5  1  0  0  0  0
  4 40  1  0  0  0  0
  4 41  1  0  0  0  0
  4 42  1  0  0  0  0
  5  6  2  0  0  0  0
  5 12  1  0  0  0  0
  6  7  1  0  0  0  0
  7  8  1  0  0  0  0
  8  9  2  0  0  0  0
  8 12  1  0  0  0  0
  9 10  1  0  0  0  0
  9 43  1  0  0  0  0
 10 44  1  0  0  0  0
 11 12  2  0  0  0  0
 11 45  1  0  0  0  0
 14 18  1  0  0  0  0
 15 16  1  0  0  0  0
 15 46  1  0  0  0  0
 15 47  1  0  0  0  0
 16 17  1  0  0  0  0
 17 18  1  0  0  0  0
 17 21  1  0  0  0  0
 17 48  1  6  0  0  0
 18 19  1  0  0  0  0
 18 49  1  1  0  0  0
 19 20  1  0  0  0  0
 19 50  1  0  0  0  0
 19 51  1  0  0  0  0
 20 52  1  0  0  0  0
 21 22  2  0  0  0  0
 21 26  1  0  0  0  0
 22 23  1  0  0  0  0
 22 53  1  0  0  0  0
 23 24  2  0  0  0  0
 23 54  1  0  0  0  0
 24 25  1  0  0  0  0
 24 55  1  0  0  0  0
 25 26  2  0  0  0  0
 25 56  1  0  0  0  0
 26 57  1  0  0  0  0
 27  6  1  6  0  0  0
 27 28  1  0  0  0  0
 27 35  1  0  0  0  0
 28 29  1  0  0  0  0
 28 58  1  0  0  0  0
 29 59  1  0  0  0  0
 30 29  1  1  0  0  0
 30 31  1  0  0  0  0
 30 35  1  0  0  0  0
 31 32  1  0  0  0  0
 31 60  1  0  0  0  0
 32 33  1  0  0  0  0
 32 36  1  6  0  0  0
 33 34  1  0  0  0  0
 33 61  1  0  0  0  0
 34 62  1  0  0  0  0
 35 34  1  6  0  0  0
 36 37  3  0  0  0  0
M  CHG  2   5   1  29   1
M  END
$$$$
