4LD
 OpenBabel04111922533D

 54 59  0  0  0  0  0  0  0  0999 V2000
   16.3729   -7.4787    9.5481 C   0  0  0  0  0  0  0  0  0  0  0  0
   18.1399   -5.4075    8.6972 C   0  0  0  0  0  0  0  0  0  0  0  0
   19.0370   -4.4575    8.1581 C   0  0  0  0  0  0  0  0  0  0  0  0
   20.2604   -3.8593    8.6191 C   0  0  0  0  0  0  0  0  0  0  0  0
   21.0380   -3.9224    9.7961 C   0  0  0  0  0  0  0  0  0  0  0  0
   15.2662   -6.8991    5.6298 C   0  0  0  0  0  0  0  0  0  0  0  0
   14.4539   -4.8516    5.5688 C   0  0  0  0  0  0  0  0  0  0  0  0
   21.3213   -5.6233   11.6236 C   0  0  0  0  0  0  0  0  0  0  0  0
   13.5042   -5.6390    5.0452 N   0  0  0  0  0  0  0  0  0  0  0  0
   14.0173   -6.9284    5.0920 O   0  0  0  0  0  0  0  0  0  0  0  0
   20.5969   -4.6326   10.9788 C   0  0  0  0  0  0  0  0  0  0  0  0
   20.7328   -3.0670    7.5692 C   0  0  0  0  0  0  0  0  0  0  0  0
   15.9845   -8.1840    5.7367 C   0  0  0  0  0  0  0  0  0  0  0  0
   15.5715   -5.6060    5.9854 C   0  0  0  0  0  0  0  0  0  0  0  0
   16.7583   -5.2197    6.7150 C   0  0  0  0  0  0  0  0  0  0  0  0
   18.7663   -3.9386    6.8927 C   0  0  0  0  0  0  0  0  0  0  0  0
   17.0003   -5.7767    7.9847 C   0  0  0  0  0  0  0  0  0  0  0  0
   20.5459   -6.0279   12.6778 N   0  3  0  0  0  0  0  0  0  0  0  0
   14.2572   -3.3892    5.6681 C   0  0  0  0  0  0  0  0  0  0  0  0
   16.0441   -6.6411    8.4532 O   0  0  0  0  0  0  0  0  0  0  0  0
   22.6477   -6.2322   11.3704 C   0  0  0  0  0  0  0  0  0  0  0  0
   19.4121   -4.5133   11.7569 C   0  0  0  0  0  0  0  0  0  0  0  0
   18.2694   -3.5357   11.4755 C   0  0  0  0  0  0  0  0  0  0  0  0
   17.4288   -3.0193   12.6250 C   0  0  0  0  0  0  0  0  0  0  0  0
   16.8466   -4.0268   11.6951 C   0  0  0  0  0  0  0  0  0  0  0  0
   22.6602   -2.5798    8.7870 C   0  0  0  0  0  0  0  0  0  0  0  0
   21.9565   -2.4035    7.6139 C   0  0  0  0  0  0  0  0  0  0  0  0
   17.6393   -4.2898    6.1484 C   0  0  0  0  0  0  0  0  0  0  0  0
   19.3722   -5.3921   12.7652 N   0  0  0  0  0  0  0  0  0  0  0  0
   22.2440   -3.2885    9.8547 N   0  0  0  0  0  0  0  0  0  0  0  0
   19.7893   -3.0874    6.5708 N   0  3  0  0  0  0  0  0  0  0  0  0
   15.5102   -8.1266    9.7340 H   0  0  0  0  0  0  0  0  0  0  0  0
   16.5452   -6.8909   10.4514 H   0  0  0  0  0  0  0  0  0  0  0  0
   17.2289   -8.1189    9.3123 H   0  0  0  0  0  0  0  0  0  0  0  0
   18.3423   -5.8330    9.6706 H   0  0  0  0  0  0  0  0  0  0  0  0
   16.9803   -8.0433    6.1708 H   0  0  0  0  0  0  0  0  0  0  0  0
   16.1239   -8.6260    4.7469 H   0  0  0  0  0  0  0  0  0  0  0  0
   15.4412   -8.8896    6.3713 H   0  0  0  0  0  0  0  0  0  0  0  0
   20.7540   -6.7418   13.3687 H   0  0  0  0  0  0  0  0  0  0  0  0
   15.1317   -2.9000    6.1090 H   0  0  0  0  0  0  0  0  0  0  0  0
   13.3938   -3.1467    6.2931 H   0  0  0  0  0  0  0  0  0  0  0  0
   14.1116   -2.9599    4.6722 H   0  0  0  0  0  0  0  0  0  0  0  0
   23.1339   -5.7932   10.4956 H   0  0  0  0  0  0  0  0  0  0  0  0
   22.5487   -7.3085   11.1920 H   0  0  0  0  0  0  0  0  0  0  0  0
   23.3078   -6.0870   12.2323 H   0  0  0  0  0  0  0  0  0  0  0  0
   18.4291   -2.8567   10.6458 H   0  0  0  0  0  0  0  0  0  0  0  0
   17.0593   -2.0028   12.5657 H   0  0  0  0  0  0  0  0  0  0  0  0
   17.6780   -3.3370   13.6309 H   0  0  0  0  0  0  0  0  0  0  0  0
   16.6943   -5.0334   12.0688 H   0  0  0  0  0  0  0  0  0  0  0  0
   16.0831   -3.7057   10.9963 H   0  0  0  0  0  0  0  0  0  0  0  0
   23.6460   -2.1140    8.9041 H   0  0  0  0  0  0  0  0  0  0  0  0
   22.3323   -1.8118    6.7929 H   0  0  0  0  0  0  0  0  0  0  0  0
   17.4648   -3.8613    5.1657 H   0  0  0  0  0  0  0  0  0  0  0  0
   19.8615   -2.5773    5.7008 H   0  0  0  0  0  0  0  0  0  0  0  0
  1 20  1  0  0  0  0
  1 32  1  0  0  0  0
  1 33  1  0  0  0  0
  1 34  1  0  0  0  0
  2  3  2  0  0  0  0
  2 17  1  0  0  0  0
  2 35  1  0  0  0  0
  3  4  1  0  0  0  0
  3 16  1  0  0  0  0
  4  5  2  0  0  0  0
  4 12  1  0  0  0  0
  5 11  1  0  0  0  0
  5 30  1  0  0  0  0
  6 10  1  0  0  0  0
  6 13  1  0  0  0  0
  6 14  2  0  0  0  0
  7  9  2  0  0  0  0
  7 14  1  0  0  0  0
  7 19  1  0  0  0  0
  8 11  1  0  0  0  0
  8 18  2  0  0  0  0
  8 21  1  0  0  0  0
  9 10  1  0  0  0  0
 11 22  2  0  0  0  0
 12 27  1  0  0  0  0
 12 31  2  0  0  0  0
 13 36  1  0  0  0  0
 13 37  1  0  0  0  0
 13 38  1  0  0  0  0
 14 15  1  0  0  0  0
 15 17  2  0  0  0  0
 15 28  1  0  0  0  0
 16 28  2  0  0  0  0
 16 31  1  0  0  0  0
 17 20  1  0  0  0  0
 18 29  1  0  0  0  0
 18 39  1  0  0  0  0
 19 40  1  0  0  0  0
 19 41  1  0  0  0  0
 19 42  1  0  0  0  0
 21 43  1  0  0  0  0
 21 44  1  0  0  0  0
 21 45  1  0  0  0  0
 22 23  1  0  0  0  0
 22 29  1  0  0  0  0
 23 24  1  0  0  0  0
 23 25  1  0  0  0  0
 23 46  1  0  0  0  0
 24 25  1  0  0  0  0
 24 47  1  0  0  0  0
 24 48  1  0  0  0  0
 25 49  1  0  0  0  0
 25 50  1  0  0  0  0
 26 27  2  0  0  0  0
 26 30  1  0  0  0  0
 26 51  1  0  0  0  0
 27 52  1  0  0  0  0
 28 53  1  0  0  0  0
 31 54  1  0  0  0  0
M  CHG  2  18   1  31   1
M  END
$$$$
