4NX
 OpenBabel04111922573D

 51 55  0  0  1  0  0  0  0  0999 V2000
   11.9276    2.5731  -23.0127 Cl  0  0  0  0  0  0  0  0  0  0  0  0
   10.6746    3.2447  -23.9797 C   0  0  0  0  0  0  0  0  0  0  0  0
   10.9870    3.9131  -25.1598 C   0  0  0  0  0  0  0  0  0  0  0  0
    9.9660    4.4701  -25.9350 C   0  0  0  0  0  0  0  0  0  0  0  0
    9.3516    3.1213  -23.5754 C   0  0  0  0  0  0  0  0  0  0  0  0
    8.3329    3.6797  -24.3490 C   0  0  0  0  0  0  0  0  0  0  0  0
    8.6220    4.3619  -25.5399 C   0  0  0  0  0  0  0  0  0  0  0  0
    7.5549    5.0234  -26.3926 C   0  0  0  0  0  0  0  0  0  0  0  0
    6.1943    4.4431  -26.2932 C   0  0  0  0  0  0  0  0  0  0  0  0
    5.2478    4.8217  -25.2468 C   0  0  0  0  0  0  0  0  0  0  0  0
    5.4828    5.5841  -24.3269 O   0  0  0  0  0  0  0  0  0  0  0  0
    4.0798    4.1592  -25.4124 O   0  0  0  0  0  0  0  0  0  0  0  0
    4.2023    3.2778  -26.5261 C   0  0  2  0  0  0  0  0  0  0  0  0
    3.1875    3.6837  -27.4322 O   0  0  0  0  0  0  0  0  0  0  0  0
    3.9492    1.8219  -26.0591 C   0  0  0  0  0  0  0  0  0  0  0  0
    4.9107    1.3341  -24.9960 C   0  0  0  0  0  0  0  0  0  0  0  0
    6.0085    0.5376  -25.3473 C   0  0  0  0  0  0  0  0  0  0  0  0
    6.9194    0.1190  -24.3765 C   0  0  0  0  0  0  0  0  0  0  0  0
    4.7420    1.7089  -23.6546 C   0  0  0  0  0  0  0  0  0  0  0  0
    5.6442    1.2770  -22.6811 C   0  0  0  0  0  0  0  0  0  0  0  0
    6.7233    0.4754  -23.0447 C   0  0  0  0  0  0  0  0  0  0  0  0
    7.8182   -0.0797  -21.8399 Cl  0  0  0  0  0  0  0  0  0  0  0  0
    5.5757    3.5370  -27.0572 C   0  0  0  0  0  0  0  0  0  0  0  0
    6.1690    2.8052  -28.1368 C   0  0  2  0  0  0  0  0  0  0  0  0
    7.4734    2.3287  -28.1307 C   0  0  0  0  0  0  0  0  0  0  0  0
    7.7468    1.7812  -29.3593 N   0  3  0  0  0  0  0  0  0  0  0  0
    6.6350    1.8560  -30.1586 C   0  0  1  0  0  0  0  0  0  0  0  0
    5.6261    2.4766  -29.4122 C   0  0  2  0  0  0  0  0  0  0  0  0
    6.4535    1.4404  -31.4843 C   0  0  0  0  0  0  0  0  0  0  0  0
    5.1977    1.6503  -32.0607 C   0  0  2  0  0  0  0  0  0  0  0  0
    4.9129    1.1531  -33.6828 Cl  0  0  0  0  0  0  0  0  0  0  0  0
    4.1712    2.2580  -31.3496 C   0  0  0  0  0  0  0  0  0  0  0  0
    4.3813    2.6810  -30.0382 C   0  0  0  0  0  0  0  0  0  0  0  0
   12.0208    4.0113  -25.4776 H   0  0  0  0  0  0  0  0  0  0  0  0
   10.2262    4.9910  -26.8545 H   0  0  0  0  0  0  0  0  0  0  0  0
    9.1004    2.6012  -22.6556 H   0  0  0  0  0  0  0  0  0  0  0  0
    7.3128    3.5684  -23.9942 H   0  0  0  0  0  0  0  0  0  0  0  0
    7.8729    4.9600  -27.4430 H   0  0  0  0  0  0  0  0  0  0  0  0
    7.5213    6.0909  -26.1639 H   0  0  0  0  0  0  0  0  0  0  0  0
    2.3393    3.5552  -26.9746 H   0  0  0  0  0  0  0  0  0  0  0  0
    3.9750    1.1480  -26.9257 H   0  0  0  0  0  0  0  0  0  0  0  0
    2.9283    1.7279  -25.6627 H   0  0  0  0  0  0  0  0  0  0  0  0
    6.1664    0.2423  -26.3828 H   0  0  0  0  0  0  0  0  0  0  0  0
    7.7757   -0.4838  -24.6662 H   0  0  0  0  0  0  0  0  0  0  0  0
    3.9122    2.3485  -23.3567 H   0  0  0  0  0  0  0  0  0  0  0  0
    5.5002    1.5718  -21.6450 H   0  0  0  0  0  0  0  0  0  0  0  0
    8.2532    2.3587  -27.3887 H   0  0  0  0  0  0  0  0  0  0  0  0
    8.6449    1.4016  -29.6380 H   0  0  0  0  0  0  0  0  0  0  0  0
    7.2553    0.9763  -32.0496 H   0  0  0  0  0  0  0  0  0  0  0  0
    3.1978    2.4254  -31.8031 H   0  0  0  0  0  0  0  0  0  0  0  0
    3.5727    3.1784  -29.5248 H   0  0  0  0  0  0  0  0  0  0  0  0
  1  2  1  0  0  0  0
  2  3  2  0  0  0  0
  2  5  1  0  0  0  0
  3  4  1  0  0  0  0
  3 34  1  0  0  0  0
  4  7  2  0  0  0  0
  4 35  1  0  0  0  0
  5  6  2  0  0  0  0
  5 36  1  0  0  0  0
  6  7  1  0  0  0  0
  6 37  1  0  0  0  0
  7  8  1  0  0  0  0
  8  9  1  0  0  0  0
  8 38  1  0  0  0  0
  8 39  1  0  0  0  0
  9 10  1  0  0  0  0
  9 23  2  0  0  0  0
 10 11  2  0  0  0  0
 10 12  1  0  0  0  0
 12 13  1  0  0  0  0
 13 14  1  6  0  0  0
 13 15  1  0  0  0  0
 13 23  1  0  0  0  0
 14 40  1  0  0  0  0
 15 16  1  0  0  0  0
 15 41  1  0  0  0  0
 15 42  1  0  0  0  0
 16 17  2  0  0  0  0
 16 19  1  0  0  0  0
 17 18  1  0  0  0  0
 17 43  1  0  0  0  0
 18 21  2  0  0  0  0
 18 44  1  0  0  0  0
 19 20  2  0  0  0  0
 19 45  1  0  0  0  0
 20 21  1  0  0  0  0
 20 46  1  0  0  0  0
 21 22  1  0  0  0  0
 24 23  1  6  0  0  0
 24 25  1  0  0  0  0
 24 28  1  0  0  0  0
 25 26  1  0  0  0  0
 25 47  1  0  0  0  0
 26 48  1  0  0  0  0
 27 26  1  6  0  0  0
 27 28  1  0  0  0  0
 27 29  1  0  0  0  0
 28 33  1  6  0  0  0
 29 30  1  0  0  0  0
 29 49  1  0  0  0  0
 30 31  1  6  0  0  0
 30 32  1  0  0  0  0
 32 33  1  0  0  0  0
 32 50  1  0  0  0  0
 33 51  1  0  0  0  0
M  CHG  1  26   1
M  END
$$$$
