4O6
 OpenBabel04111922403D

 53 55  0  0  1  0  0  0  0  0999 V2000
    7.1876    1.8686   20.6804 C   0  0  0  0  0  0  0  0  0  0  0  0
    7.4117    3.2827   20.1785 C   0  0  1  0  0  0  0  0  0  0  0  0
    7.2168    3.3686   18.6591 C   0  0  0  0  0  0  0  0  0  0  0  0
    6.1157    3.6658   18.1957 O   0  0  0  0  0  0  0  0  0  0  0  0
    8.2610    3.0381   17.8350 N   0  0  0  0  0  0  0  0  0  0  0  0
    9.5945    2.6829   18.3204 C   0  0  0  0  0  0  0  0  0  0  0  0
   10.1038    1.4483   17.5997 C   0  0  0  0  0  0  0  0  0  0  0  0
   10.0855    1.6520   16.1788 O   0  0  0  0  0  0  0  0  0  0  0  0
    8.7343    1.8632   15.7372 C   0  0  0  0  0  0  0  0  0  0  0  0
    8.1304    3.1055   16.3779 C   0  0  0  0  0  0  0  0  0  0  0  0
    6.5618    4.2466   20.8735 N   0  0  0  0  0  0  0  0  0  0  0  0
    5.1785    4.0266   21.2400 C   0  0  0  0  0  0  0  0  0  0  0  0
    4.6481    5.4325   21.4926 C   0  0  0  0  0  0  0  0  0  0  0  0
    5.8845    6.1644   22.0120 C   0  0  2  0  0  0  0  0  0  0  0  0
    5.8291    7.5994   21.8130 N   0  0  0  0  0  0  0  0  0  0  0  0
    6.1131    8.6162   23.1106 S   0  0  0  0  0  0  0  0  0  0  0  0
    5.3691    8.0209   24.2129 O   0  0  0  0  0  0  0  0  0  0  0  0
    5.7731    9.9276   22.6363 O   0  0  0  0  0  0  0  0  0  0  0  0
    7.8172    8.5598   23.4508 C   0  0  0  0  0  0  0  0  0  0  0  0
    8.2233    8.2995   24.7229 C   0  0  0  0  0  0  0  0  0  0  0  0
    9.6090    8.0593   25.1307 C   0  0  0  0  0  0  0  0  0  0  0  0
    9.8432    7.4612   26.3801 C   0  0  0  0  0  0  0  0  0  0  0  0
   11.1483    7.2095   26.8294 C   0  0  0  0  0  0  0  0  0  0  0  0
   12.2327    7.5543   26.0336 C   0  0  0  0  0  0  0  0  0  0  0  0
   13.8291    7.2536   26.5862 Cl  0  0  0  0  0  0  0  0  0  0  0  0
   12.0257    8.1432   24.7917 C   0  0  0  0  0  0  0  0  0  0  0  0
   10.7211    8.3946   24.3488 C   0  0  0  0  0  0  0  0  0  0  0  0
    7.0211    5.4953   21.2574 C   0  0  0  0  0  0  0  0  0  0  0  0
    8.1387    5.9413   21.0790 O   0  0  0  0  0  0  0  0  0  0  0  0
    7.8287    1.1557   20.1564 H   0  0  0  0  0  0  0  0  0  0  0  0
    6.1480    1.5688   20.5245 H   0  0  0  0  0  0  0  0  0  0  0  0
    7.4084    1.8164   21.7502 H   0  0  0  0  0  0  0  0  0  0  0  0
    8.4466    3.5676   20.3978 H   0  0  0  0  0  0  0  0  0  0  0  0
    9.5852    2.4611   19.3789 H   0  0  0  0  0  0  0  0  0  0  0  0
   10.2595    3.5312   18.1389 H   0  0  0  0  0  0  0  0  0  0  0  0
    9.4674    0.5905   17.8449 H   0  0  0  0  0  0  0  0  0  0  0  0
   11.1269    1.2442   17.9120 H   0  0  0  0  0  0  0  0  0  0  0  0
    8.1344    0.9855   16.0050 H   0  0  0  0  0  0  0  0  0  0  0  0
    8.7426    1.9741   14.6502 H   0  0  0  0  0  0  0  0  0  0  0  0
    8.6640    3.9950   16.0238 H   0  0  0  0  0  0  0  0  0  0  0  0
    7.0775    3.1818   16.0825 H   0  0  0  0  0  0  0  0  0  0  0  0
    5.1489    3.4309   22.1592 H   0  0  0  0  0  0  0  0  0  0  0  0
    4.6242    3.5125   20.4522 H   0  0  0  0  0  0  0  0  0  0  0  0
    3.8297    5.4267   22.2217 H   0  0  0  0  0  0  0  0  0  0  0  0
    4.2667    5.8685   20.5596 H   0  0  0  0  0  0  0  0  0  0  0  0
    5.9996    5.9354   23.0747 H   0  0  0  0  0  0  0  0  0  0  0  0
    5.6661    8.0153   20.8942 H   0  0  0  0  0  0  0  0  0  0  0  0
    8.5142    8.7227   22.6536 H   0  0  0  0  0  0  0  0  0  0  0  0
    7.4712    8.2455   25.4979 H   0  0  0  0  0  0  0  0  0  0  0  0
    9.0079    7.1672   27.0098 H   0  0  0  0  0  0  0  0  0  0  0  0
   11.3066    6.7524   27.8021 H   0  0  0  0  0  0  0  0  0  0  0  0
   12.8725    8.4114   24.1664 H   0  0  0  0  0  0  0  0  0  0  0  0
   10.5877    8.8637   23.3759 H   0  0  0  0  0  0  0  0  0  0  0  0
  1  2  1  0  0  0  0
  1 30  1  0  0  0  0
  1 31  1  0  0  0  0
  1 32  1  0  0  0  0
  2  3  1  0  0  0  0
  2 11  1  0  0  0  0
  2 33  1  1  0  0  0
  3  4  2  0  0  0  0
  3  5  1  0  0  0  0
  5  6  1  0  0  0  0
  5 10  1  0  0  0  0
  6  7  1  0  0  0  0
  6 34  1  0  0  0  0
  6 35  1  0  0  0  0
  7  8  1  0  0  0  0
  7 36  1  0  0  0  0
  7 37  1  0  0  0  0
  8  9  1  0  0  0  0
  9 10  1  0  0  0  0
  9 38  1  0  0  0  0
  9 39  1  0  0  0  0
 10 40  1  0  0  0  0
 10 41  1  0  0  0  0
 11 12  1  0  0  0  0
 11 28  1  0  0  0  0
 12 13  1  0  0  0  0
 12 42  1  0  0  0  0
 12 43  1  0  0  0  0
 13 14  1  0  0  0  0
 13 44  1  0  0  0  0
 13 45  1  0  0  0  0
 14 15  1  0  0  0  0
 14 28  1  0  0  0  0
 14 46  1  1  0  0  0
 15 16  1  0  0  0  0
 15 47  1  0  0  0  0
 16 17  2  0  0  0  0
 16 18  2  0  0  0  0
 16 19  1  0  0  0  0
 19 20  2  0  0  0  0
 19 48  1  0  0  0  0
 20 21  1  0  0  0  0
 20 49  1  0  0  0  0
 21 22  2  0  0  0  0
 21 27  1  0  0  0  0
 22 23  1  0  0  0  0
 22 50  1  0  0  0  0
 23 24  2  0  0  0  0
 23 51  1  0  0  0  0
 24 25  1  0  0  0  0
 24 26  1  0  0  0  0
 26 27  2  0  0  0  0
 26 52  1  0  0  0  0
 27 53  1  0  0  0  0
 28 29  2  0  0  0  0
M  END
$$$$
