4PK
 OpenBabel04111922583D

100101  0  0  1  0  0  0  0  0999 V2000
    0.5006  107.3929   39.2160 C   0  0  0  0  0  0  0  0  0  0  0  0
   -1.6245  104.1446   41.0026 C   0  0  0  0  0  0  0  0  0  0  0  0
   -0.8737  105.2706   40.9342 O   0  0  0  0  0  0  0  0  0  0  0  0
   -1.5439  106.3391   40.2545 C   0  0  0  0  0  0  0  0  0  0  0  0
   -0.7026  106.6941   39.0524 C   0  0  0  0  0  0  0  0  0  0  0  0
   -1.0989  106.3078   37.7622 C   0  0  0  0  0  0  0  0  0  0  0  0
   -0.3106  106.6278   36.6551 C   0  0  0  0  0  0  0  0  0  0  0  0
    0.8824  107.3286   36.8291 C   0  0  0  0  0  0  0  0  0  0  0  0
    1.2887  107.7108   38.1082 C   0  0  0  0  0  0  0  0  0  0  0  0
   -2.8690  104.1256   41.0419 O   0  0  0  0  0  0  0  0  0  0  0  0
   -0.9035  103.0043   40.8628 N   0  0  0  0  0  0  0  0  0  0  0  0
   -1.6090  101.7173   40.8406 C   0  0  1  0  0  0  0  0  0  0  0  0
   -0.8333  100.6769   40.0335 C   0  0  0  0  0  0  0  0  0  0  0  0
   -0.4111  101.1948   38.6734 C   0  0  0  0  0  0  0  0  0  0  0  0
   -1.7556  101.1270   42.2504 C   0  0  0  0  0  0  0  0  0  0  0  0
   -1.5495  101.5646   37.8894 O   0  0  0  0  0  0  0  0  0  0  0  0
   -2.4567  100.4918   37.8352 N   0  3  0  0  0  0  0  0  0  0  0  0
   -2.6851   99.8669   36.6741 C   0  0  0  0  0  0  0  0  0  0  0  0
   -1.9777  100.2316   35.5958 N   0  0  0  0  0  0  0  0  0  0  0  0
   -3.5587   98.8771   36.5729 N   0  0  0  0  0  0  0  0  0  0  0  0
   -0.9304  101.3546   43.1326 O   0  0  0  0  0  0  0  0  0  0  0  0
   -2.7412  100.1764   42.4021 N   0  0  0  0  0  0  0  0  0  0  0  0
   -2.9200   99.4621   43.6739 C   0  0  2  0  0  0  0  0  0  0  0  0
   -3.4568   98.0813   43.2715 C   0  0  0  0  0  0  0  0  0  0  0  0
   -4.6413   97.9235   42.9596 O   0  0  0  0  0  0  0  0  0  0  0  0
   -3.9190  100.1445   44.6318 C   0  0  0  0  0  0  0  0  0  0  0  0
   -3.7666   99.4505   45.9898 C   0  0  0  0  0  0  0  0  0  0  0  0
   -3.6572  101.6429   44.7803 C   0  0  0  0  0  0  0  0  0  0  0  0
   -2.5274   97.0950   43.0529 N   0  0  0  0  0  0  0  0  0  0  0  0
   -2.9250   95.7714   42.5586 C   0  0  1  0  0  0  0  0  0  0  0  0
   -2.2252   95.5048   41.2166 C   0  0  0  0  0  0  0  0  0  0  0  0
   -2.4646   96.6007   40.1689 C   0  0  0  0  0  0  0  0  0  0  0  0
   -1.5529   96.3740   38.9674 C   0  0  0  0  0  0  0  0  0  0  0  0
   -3.9180   96.6193   39.7127 C   0  0  0  0  0  0  0  0  0  0  0  0
   -2.5414   94.6682   43.5680 C   0  0  1  0  0  0  0  0  0  0  0  0
   -1.1632   94.8791   43.9200 O   0  0  0  0  0  0  0  0  0  0  0  0
   -3.4369   94.6884   44.8050 C   0  0  0  0  0  0  0  0  0  0  0  0
   -4.7936   94.0629   44.5101 C   0  0  0  0  0  0  0  0  0  0  0  0
   -5.7772   94.7727   44.3082 O   0  0  0  0  0  0  0  0  0  0  0  0
   -6.2446   91.5027   46.6235 C   0  0  0  0  0  0  0  0  0  0  0  0
   -7.3756   92.1714   47.1072 C   0  0  0  0  0  0  0  0  0  0  0  0
   -7.3188   92.8461   48.3222 C   0  0  0  0  0  0  0  0  0  0  0  0
   -6.1314   92.8717   49.0535 C   0  0  0  0  0  0  0  0  0  0  0  0
   -4.9921   92.2307   48.5641 C   0  0  0  0  0  0  0  0  0  0  0  0
   -5.0487   91.5502   47.3513 C   0  0  0  0  0  0  0  0  0  0  0  0
   -6.2807   90.8690   45.2560 C   0  0  0  0  0  0  0  0  0  0  0  0
   -6.1126   91.9795   44.2143 C   0  0  0  0  0  0  0  0  0  0  0  0
   -4.8421   92.6917   44.3951 N   0  0  0  0  0  0  0  0  0  0  0  0
    0.8238  107.6941   40.2105 H   0  0  0  0  0  0  0  0  0  0  0  0
   -1.6829  107.2215   40.8925 H   0  0  0  0  0  0  0  0  0  0  0  0
   -2.5422  106.0446   39.9021 H   0  0  0  0  0  0  0  0  0  0  0  0
   -2.0302  105.7657   37.6152 H   0  0  0  0  0  0  0  0  0  0  0  0
   -0.6277  106.3388   35.6560 H   0  0  0  0  0  0  0  0  0  0  0  0
    1.4964  107.5831   35.9680 H   0  0  0  0  0  0  0  0  0  0  0  0
    2.2178  108.2593   38.2433 H   0  0  0  0  0  0  0  0  0  0  0  0
    0.1027  103.0491   40.8833 H   0  0  0  0  0  0  0  0  0  0  0  0
   -2.6064  101.8701   40.4051 H   0  0  0  0  0  0  0  0  0  0  0  0
   -1.4606   99.7876   39.9048 H   0  0  0  0  0  0  0  0  0  0  0  0
    0.0496  100.3490   40.5882 H   0  0  0  0  0  0  0  0  0  0  0  0
    0.1731  100.4408   38.1328 H   0  0  0  0  0  0  0  0  0  0  0  0
    0.2287  102.0779   38.7695 H   0  0  0  0  0  0  0  0  0  0  0  0
   -2.9969  100.2220   38.6514 H   0  0  0  0  0  0  0  0  0  0  0  0
   -2.1039   99.7952   34.6950 H   0  0  0  0  0  0  0  0  0  0  0  0
   -4.1125   98.5785   37.3622 H   0  0  0  0  0  0  0  0  0  0  0  0
   -3.7162   98.4068   35.6918 H   0  0  0  0  0  0  0  0  0  0  0  0
   -3.4557  100.0222   41.7008 H   0  0  0  0  0  0  0  0  0  0  0  0
   -1.9511   99.3725   44.1783 H   0  0  0  0  0  0  0  0  0  0  0  0
   -4.9530  100.0154   44.2778 H   0  0  0  0  0  0  0  0  0  0  0  0
   -4.4558   99.8549   46.7342 H   0  0  0  0  0  0  0  0  0  0  0  0
   -2.7434   99.5754   46.3629 H   0  0  0  0  0  0  0  0  0  0  0  0
   -3.9527   98.3744   45.8998 H   0  0  0  0  0  0  0  0  0  0  0  0
   -3.8037  102.1642   43.8282 H   0  0  0  0  0  0  0  0  0  0  0  0
   -2.6315  101.8227   45.1156 H   0  0  0  0  0  0  0  0  0  0  0  0
   -4.3353  102.0989   45.5082 H   0  0  0  0  0  0  0  0  0  0  0  0
   -1.5450   97.2353   43.2821 H   0  0  0  0  0  0  0  0  0  0  0  0
   -4.0098   95.7405   42.4083 H   0  0  0  0  0  0  0  0  0  0  0  0
   -2.5689   94.5400   40.8195 H   0  0  0  0  0  0  0  0  0  0  0  0
   -1.1468   95.4126   41.3918 H   0  0  0  0  0  0  0  0  0  0  0  0
   -2.2162   97.5768   40.5985 H   0  0  0  0  0  0  0  0  0  0  0  0
   -1.7048   97.1545   38.2161 H   0  0  0  0  0  0  0  0  0  0  0  0
   -1.7575   95.4045   38.5032 H   0  0  0  0  0  0  0  0  0  0  0  0
   -0.5007   96.3945   39.2693 H   0  0  0  0  0  0  0  0  0  0  0  0
   -4.6011   96.7922   40.5463 H   0  0  0  0  0  0  0  0  0  0  0  0
   -4.1902   95.6722   39.2372 H   0  0  0  0  0  0  0  0  0  0  0  0
   -4.0801   97.4214   38.9926 H   0  0  0  0  0  0  0  0  0  0  0  0
   -2.6132   93.6877   43.0830 H   0  0  0  0  0  0  0  0  0  0  0  0
   -0.8916   94.1903   44.5488 H   0  0  0  0  0  0  0  0  0  0  0  0
   -3.5940   95.7188   45.1429 H   0  0  0  0  0  0  0  0  0  0  0  0
   -2.9538   94.1661   45.6394 H   0  0  0  0  0  0  0  0  0  0  0  0
   -8.2956   92.1804   46.5261 H   0  0  0  0  0  0  0  0  0  0  0  0
   -8.2033   93.3531   48.7003 H   0  0  0  0  0  0  0  0  0  0  0  0
   -6.0954   93.3936   50.0065 H   0  0  0  0  0  0  0  0  0  0  0  0
   -4.0666   92.2576   49.1306 H   0  0  0  0  0  0  0  0  0  0  0  0
   -4.1527   91.0706   46.9641 H   0  0  0  0  0  0  0  0  0  0  0  0
   -7.2280   90.3287   45.1169 H   0  0  0  0  0  0  0  0  0  0  0  0
   -5.4799   90.1256   45.1561 H   0  0  0  0  0  0  0  0  0  0  0  0
   -6.9613   92.6733   44.2826 H   0  0  0  0  0  0  0  0  0  0  0  0
   -6.1160   91.5559   43.2057 H   0  0  0  0  0  0  0  0  0  0  0  0
   -4.0339   92.1326   44.6352 H   0  0  0  0  0  0  0  0  0  0  0  0
   -1.3114  100.9915   35.6817 H   0  0  0  0  0  0  0  0  0  0  0  0
  1  5  2  0  0  0  0
  1  9  1  0  0  0  0
  1 49  1  0  0  0  0
  2  3  1  0  0  0  0
  2 10  2  0  0  0  0
  2 11  1  0  0  0  0
  3  4  1  0  0  0  0
  4  5  1  0  0  0  0
  4 50  1  0  0  0  0
  4 51  1  0  0  0  0
  5  6  1  0  0  0  0
  6  7  2  0  0  0  0
  6 52  1  0  0  0  0
  7  8  1  0  0  0  0
  7 53  1  0  0  0  0
  8  9  2  0  0  0  0
  8 54  1  0  0  0  0
  9 55  1  0  0  0  0
 11 12  1  0  0  0  0
 11 56  1  0  0  0  0
 12 13  1  0  0  0  0
 12 15  1  0  0  0  0
 12 57  1  6  0  0  0
 13 14  1  0  0  0  0
 13 58  1  0  0  0  0
 13 59  1  0  0  0  0
 14 16  1  0  0  0  0
 14 60  1  0  0  0  0
 14 61  1  0  0  0  0
 15 21  2  0  0  0  0
 15 22  1  0  0  0  0
 16 17  1  0  0  0  0
 17 18  1  0  0  0  0
 17 62  1  0  0  0  0
 18 19  2  0  0  0  0
 18 20  1  0  0  0  0
 19 63  1  0  0  0  0
 19100  1  0  0  0  0
 20 64  1  0  0  0  0
 20 65  1  0  0  0  0
 22 23  1  0  0  0  0
 22 66  1  0  0  0  0
 23 24  1  0  0  0  0
 23 26  1  0  0  0  0
 23 67  1  1  0  0  0
 24 25  2  0  0  0  0
 24 29  1  0  0  0  0
 26 27  1  0  0  0  0
 26 28  1  0  0  0  0
 26 68  1  0  0  0  0
 27 69  1  0  0  0  0
 27 70  1  0  0  0  0
 27 71  1  0  0  0  0
 28 72  1  0  0  0  0
 28 73  1  0  0  0  0
 28 74  1  0  0  0  0
 29 30  1  0  0  0  0
 29 75  1  0  0  0  0
 30 31  1  0  0  0  0
 30 35  1  0  0  0  0
 30 76  1  6  0  0  0
 31 32  1  0  0  0  0
 31 77  1  0  0  0  0
 31 78  1  0  0  0  0
 32 33  1  0  0  0  0
 32 34  1  0  0  0  0
 32 79  1  0  0  0  0
 33 80  1  0  0  0  0
 33 81  1  0  0  0  0
 33 82  1  0  0  0  0
 34 83  1  0  0  0  0
 34 84  1  0  0  0  0
 34 85  1  0  0  0  0
 35 36  1  0  0  0  0
 35 37  1  0  0  0  0
 35 86  1  6  0  0  0
 36 87  1  0  0  0  0
 37 38  1  0  0  0  0
 37 88  1  0  0  0  0
 37 89  1  0  0  0  0
 38 39  2  0  0  0  0
 38 48  1  0  0  0  0
 40 41  2  0  0  0  0
 40 45  1  0  0  0  0
 40 46  1  0  0  0  0
 41 42  1  0  0  0  0
 41 90  1  0  0  0  0
 42 43  2  0  0  0  0
 42 91  1  0  0  0  0
 43 44  1  0  0  0  0
 43 92  1  0  0  0  0
 44 45  2  0  0  0  0
 44 93  1  0  0  0  0
 45 94  1  0  0  0  0
 46 47  1  0  0  0  0
 46 95  1  0  0  0  0
 46 96  1  0  0  0  0
 47 48  1  0  0  0  0
 47 97  1  0  0  0  0
 47 98  1  0  0  0  0
 48 99  1  0  0  0  0
M  CHG  1  17   1
M  END
$$$$
