4Q0
 OpenBabel04111922593D

 61 65  0  0  0  0  0  0  0  0999 V2000
   -0.2327   -4.6412   23.4167 C   0  0  0  0  0  0  0  0  0  0  0  0
   -1.5254   -5.0725   23.7030 C   0  0  0  0  0  0  0  0  0  0  0  0
   -0.7766   -5.8103   25.8862 C   0  0  0  0  0  0  0  0  0  0  0  0
   -5.3175   -6.5445   24.3841 C   0  0  0  0  0  0  0  0  0  0  0  0
   -4.7608   -5.0872   21.9528 C   0  0  0  0  0  0  0  0  0  0  0  0
   -5.0186   -3.5914   21.9975 C   0  0  0  0  0  0  0  0  0  0  0  0
   -6.3948   -5.8269   24.8888 C   0  0  0  0  0  0  0  0  0  0  0  0
   -7.6061   -6.4743   25.0942 C   0  0  0  0  0  0  0  0  0  0  0  0
   -6.6591   -8.5490   24.3140 C   0  0  0  0  0  0  0  0  0  0  0  0
   -9.7649   -7.8831   25.9463 C   0  0  0  0  0  0  0  0  0  0  0  0
   -6.1857   -3.1932   21.2651 N   0  0  0  0  0  0  0  0  0  0  0  0
   -7.3877   -2.8878   21.8817 C   0  0  0  0  0  0  0  0  0  0  0  0
   -8.2602   -2.4919   20.7663 C   0  0  0  0  0  0  0  0  0  0  0  0
   -7.5713   -2.6344   19.5730 C   0  0  0  0  0  0  0  0  0  0  0  0
    0.5095   -5.3724   25.5948 C   0  0  0  0  0  0  0  0  0  0  0  0
   -2.5144   -4.9051   22.7374 N   0  0  0  0  0  0  0  0  0  0  0  0
   -3.3953   -6.6095   26.3273 O   0  0  0  0  0  0  0  0  0  0  0  0
    0.7804   -4.7851   24.3667 C   0  0  0  0  0  0  0  0  0  0  0  0
   -1.7850   -5.6479   24.9437 C   0  0  0  0  0  0  0  0  0  0  0  0
   -3.7088   -5.3355   23.0046 C   0  0  0  0  0  0  0  0  0  0  0  0
   -4.0675   -5.9146   24.2107 N   0  3  0  0  0  0  0  0  0  0  0  0
   -3.1467   -6.0987   25.2340 C   0  0  0  0  0  0  0  0  0  0  0  0
   -7.7394   -7.8364   24.8238 C   0  0  0  0  0  0  0  0  0  0  0  0
   -5.4438   -7.9058   24.0909 C   0  0  0  0  0  0  0  0  0  0  0  0
   -8.9028   -8.5360   25.0212 O   0  0  0  0  0  0  0  0  0  0  0  0
   -6.2045   -3.0823   19.8823 C   0  0  0  0  0  0  0  0  0  0  0  0
   -9.5647   -2.0683   20.8219 C   0  0  0  0  0  0  0  0  0  0  0  0
  -10.1732   -1.7692   19.6115 C   0  0  0  0  0  0  0  0  0  0  0  0
   -9.4732   -1.9124   18.4034 C   0  0  0  0  0  0  0  0  0  0  0  0
   -8.1508   -2.3590   18.3559 C   0  0  0  0  0  0  0  0  0  0  0  0
   -5.3286   -3.2788   19.0833 O   0  0  0  0  0  0  0  0  0  0  0  0
   -7.7216   -2.9390   23.0397 O   0  0  0  0  0  0  0  0  0  0  0  0
   -7.4527   -2.5436   17.1960 O   0  0  0  0  0  0  0  0  0  0  0  0
   -8.0528   -2.0129   16.0131 C   0  0  0  0  0  0  0  0  0  0  0  0
   -6.9785   -1.5838   15.0359 C   0  0  0  0  0  0  0  0  0  0  0  0
   -8.9349   -3.0242   15.2980 C   0  0  0  0  0  0  0  0  0  0  0  0
   -0.0091   -4.1886   22.4530 H   0  0  0  0  0  0  0  0  0  0  0  0
   -0.9926   -6.2744   26.8442 H   0  0  0  0  0  0  0  0  0  0  0  0
   -4.3833   -5.3924   20.9697 H   0  0  0  0  0  0  0  0  0  0  0  0
   -5.6724   -5.6501   22.1551 H   0  0  0  0  0  0  0  0  0  0  0  0
   -4.1552   -3.0655   21.5739 H   0  0  0  0  0  0  0  0  0  0  0  0
   -5.1426   -3.2787   23.0401 H   0  0  0  0  0  0  0  0  0  0  0  0
   -6.2949   -4.7721   25.1253 H   0  0  0  0  0  0  0  0  0  0  0  0
   -8.4325   -5.8820   25.4706 H   0  0  0  0  0  0  0  0  0  0  0  0
   -6.7565   -9.6090   24.0991 H   0  0  0  0  0  0  0  0  0  0  0  0
  -10.6807   -8.4625   26.0747 H   0  0  0  0  0  0  0  0  0  0  0  0
  -10.0577   -6.8992   25.5693 H   0  0  0  0  0  0  0  0  0  0  0  0
   -9.2614   -7.7878   26.9145 H   0  0  0  0  0  0  0  0  0  0  0  0
    1.3021   -5.4895   26.3281 H   0  0  0  0  0  0  0  0  0  0  0  0
    1.7824   -4.4357   24.1414 H   0  0  0  0  0  0  0  0  0  0  0  0
   -4.5964   -8.4640   23.6968 H   0  0  0  0  0  0  0  0  0  0  0  0
  -10.0928   -1.9714   21.7722 H   0  0  0  0  0  0  0  0  0  0  0  0
  -11.2048   -1.4241   19.5897 H   0  0  0  0  0  0  0  0  0  0  0  0
  -10.0169   -1.6636   17.4960 H   0  0  0  0  0  0  0  0  0  0  0  0
   -8.6391   -1.1247   16.2543 H   0  0  0  0  0  0  0  0  0  0  0  0
   -7.4383   -1.1787   14.1254 H   0  0  0  0  0  0  0  0  0  0  0  0
   -6.3530   -2.4389   14.7623 H   0  0  0  0  0  0  0  0  0  0  0  0
   -6.3452   -0.8182   15.4866 H   0  0  0  0  0  0  0  0  0  0  0  0
   -9.3875   -2.5646   14.4100 H   0  0  0  0  0  0  0  0  0  0  0  0
   -9.7343   -3.3739   15.9536 H   0  0  0  0  0  0  0  0  0  0  0  0
   -8.3460   -3.8913   14.9803 H   0  0  0  0  0  0  0  0  0  0  0  0
  1  2  2  0  0  0  0
  1 18  1  0  0  0  0
  1 37  1  0  0  0  0
  2 16  1  0  0  0  0
  2 19  1  0  0  0  0
  3 15  1  0  0  0  0
  3 19  2  0  0  0  0
  3 38  1  0  0  0  0
  4  7  2  0  0  0  0
  4 21  1  0  0  0  0
  4 24  1  0  0  0  0
  5  6  1  0  0  0  0
  5 20  1  0  0  0  0
  5 39  1  0  0  0  0
  5 40  1  0  0  0  0
  6 11  1  0  0  0  0
  6 41  1  0  0  0  0
  6 42  1  0  0  0  0
  7  8  1  0  0  0  0
  7 43  1  0  0  0  0
  8 23  2  0  0  0  0
  8 44  1  0  0  0  0
  9 23  1  0  0  0  0
  9 24  2  0  0  0  0
  9 45  1  0  0  0  0
 10 25  1  0  0  0  0
 10 46  1  0  0  0  0
 10 47  1  0  0  0  0
 10 48  1  0  0  0  0
 11 12  1  0  0  0  0
 11 26  1  0  0  0  0
 12 13  1  0  0  0  0
 12 32  2  0  0  0  0
 13 14  2  0  0  0  0
 13 27  1  0  0  0  0
 14 26  1  0  0  0  0
 14 30  1  0  0  0  0
 15 18  2  0  0  0  0
 15 49  1  0  0  0  0
 16 20  2  0  0  0  0
 17 22  2  0  0  0  0
 18 50  1  0  0  0  0
 19 22  1  0  0  0  0
 20 21  1  0  0  0  0
 21 22  1  0  0  0  0
 23 25  1  0  0  0  0
 24 51  1  0  0  0  0
 26 31  2  0  0  0  0
 27 28  2  0  0  0  0
 27 52  1  0  0  0  0
 28 29  1  0  0  0  0
 28 53  1  0  0  0  0
 29 30  2  0  0  0  0
 29 54  1  0  0  0  0
 30 33  1  0  0  0  0
 33 34  1  0  0  0  0
 34 35  1  0  0  0  0
 34 36  1  0  0  0  0
 34 55  1  0  0  0  0
 35 56  1  0  0  0  0
 35 57  1  0  0  0  0
 35 58  1  0  0  0  0
 36 59  1  0  0  0  0
 36 60  1  0  0  0  0
 36 61  1  0  0  0  0
M  CHG  1  21   1
M  END
$$$$
