4SA
 OpenBabel04111923023D

 47 48  0  0  1  0  0  0  0  0999 V2000
   12.1813   12.5226   20.4293 C   0  0  0  0  0  0  0  0  0  0  0  0
   17.9980    8.2446    9.8425 C   0  0  0  0  0  0  0  0  0  0  0  0
   13.2494   13.1299   19.7711 C   0  0  0  0  0  0  0  0  0  0  0  0
   13.5162   12.8131   18.4443 C   0  0  0  0  0  0  0  0  0  0  0  0
   14.2627   10.5121   12.3551 C   0  0  2  0  0  0  0  0  0  0  0  0
   13.0341   11.5431   16.3696 C   0  0  0  0  0  0  0  0  0  0  0  0
   13.2129   12.5466   15.4072 C   0  0  0  0  0  0  0  0  0  0  0  0
   13.5800   12.2259   14.1036 C   0  0  0  0  0  0  0  0  0  0  0  0
   13.7704   10.8878   13.7337 C   0  0  0  0  0  0  0  0  0  0  0  0
   16.5137   10.4337   11.3411 C   0  0  0  0  0  0  0  0  0  0  0  0
   16.6891    8.9307    9.4378 C   0  0  0  0  0  0  0  0  0  0  0  0
   15.6295   10.9718   12.2099 N   0  0  0  0  0  0  0  0  0  0  0  0
   13.7653   12.2682   10.7051 N   0  0  0  0  0  0  0  0  0  0  0  0
   11.3781   11.5997   19.7621 C   0  0  0  0  0  0  0  0  0  0  0  0
   12.7174   11.8861   17.7547 C   0  0  0  0  0  0  0  0  0  0  0  0
   11.6433   11.2851   18.4293 C   0  0  0  0  0  0  0  0  0  0  0  0
   15.9767    9.4434   10.5885 O   0  0  0  0  0  0  0  0  0  0  0  0
   15.7653    7.8815    8.8031 C   0  0  0  0  0  0  0  0  0  0  0  0
   16.9226   10.0452    8.4163 C   0  0  0  0  0  0  0  0  0  0  0  0
   17.6484   10.8845   11.2465 O   0  0  0  0  0  0  0  0  0  0  0  0
   13.3677   11.0498   11.2120 C   0  0  0  0  0  0  0  0  0  0  0  0
   12.3355   10.4676   10.8762 O   0  0  0  0  0  0  0  0  0  0  0  0
   13.0079   12.7805    9.6302 O   0  0  0  0  0  0  0  0  0  0  0  0
   13.5964    9.8824   14.6945 C   0  0  0  0  0  0  0  0  0  0  0  0
   13.2244   10.2074   15.9959 C   0  0  0  0  0  0  0  0  0  0  0  0
   11.9774   12.7663   21.4670 H   0  0  0  0  0  0  0  0  0  0  0  0
   18.5290    7.8688    8.9612 H   0  0  0  0  0  0  0  0  0  0  0  0
   17.8056    7.4035   10.5180 H   0  0  0  0  0  0  0  0  0  0  0  0
   18.6756    8.9192   10.3712 H   0  0  0  0  0  0  0  0  0  0  0  0
   13.8818   13.8407   20.2911 H   0  0  0  0  0  0  0  0  0  0  0  0
   14.3663   13.2749   17.9471 H   0  0  0  0  0  0  0  0  0  0  0  0
   14.2545    9.4175   12.2546 H   0  0  0  0  0  0  0  0  0  0  0  0
   13.0766   13.5933   15.6755 H   0  0  0  0  0  0  0  0  0  0  0  0
   13.7340   13.0369   13.3966 H   0  0  0  0  0  0  0  0  0  0  0  0
   15.9840   11.7248   12.7838 H   0  0  0  0  0  0  0  0  0  0  0  0
   14.6359   12.7168   10.9614 H   0  0  0  0  0  0  0  0  0  0  0  0
   10.5492   11.1245   20.2765 H   0  0  0  0  0  0  0  0  0  0  0  0
   11.0073   10.5640   17.9174 H   0  0  0  0  0  0  0  0  0  0  0  0
   14.8042    8.3259    8.5189 H   0  0  0  0  0  0  0  0  0  0  0  0
   15.5376    7.0742    9.5087 H   0  0  0  0  0  0  0  0  0  0  0  0
   16.2197    7.4414    7.9090 H   0  0  0  0  0  0  0  0  0  0  0  0
   15.9774   10.5350    8.1559 H   0  0  0  0  0  0  0  0  0  0  0  0
   17.3766    9.6515    7.5010 H   0  0  0  0  0  0  0  0  0  0  0  0
   17.5830   10.8258    8.8039 H   0  0  0  0  0  0  0  0  0  0  0  0
   13.4862   13.5830    9.3578 H   0  0  0  0  0  0  0  0  0  0  0  0
   13.7742    8.8373   14.4479 H   0  0  0  0  0  0  0  0  0  0  0  0
   13.1178    9.4117   16.7309 H   0  0  0  0  0  0  0  0  0  0  0  0
  1  3  2  0  0  0  0
  1 14  1  0  0  0  0
  1 26  1  0  0  0  0
  2 11  1  0  0  0  0
  2 27  1  0  0  0  0
  2 28  1  0  0  0  0
  2 29  1  0  0  0  0
  3  4  1  0  0  0  0
  3 30  1  0  0  0  0
  4 15  2  0  0  0  0
  4 31  1  0  0  0  0
  5  9  1  0  0  0  0
  5 12  1  0  0  0  0
  5 21  1  0  0  0  0
  5 32  1  6  0  0  0
  6  7  2  0  0  0  0
  6 15  1  0  0  0  0
  6 25  1  0  0  0  0
  7  8  1  0  0  0  0
  7 33  1  0  0  0  0
  8  9  2  0  0  0  0
  8 34  1  0  0  0  0
  9 24  1  0  0  0  0
 10 12  1  0  0  0  0
 10 17  1  0  0  0  0
 10 20  2  0  0  0  0
 11 17  1  0  0  0  0
 11 18  1  0  0  0  0
 11 19  1  0  0  0  0
 12 35  1  0  0  0  0
 13 21  1  0  0  0  0
 13 23  1  0  0  0  0
 13 36  1  0  0  0  0
 14 16  2  0  0  0  0
 14 37  1  0  0  0  0
 15 16  1  0  0  0  0
 16 38  1  0  0  0  0
 18 39  1  0  0  0  0
 18 40  1  0  0  0  0
 18 41  1  0  0  0  0
 19 42  1  0  0  0  0
 19 43  1  0  0  0  0
 19 44  1  0  0  0  0
 21 22  2  0  0  0  0
 23 45  1  0  0  0  0
 24 25  2  0  0  0  0
 24 46  1  0  0  0  0
 25 47  1  0  0  0  0
M  END
$$$$
