4SP
 OpenBabel04111918473D

 50 53  0  0  0  0  0  0  0  0999 V2000
   -8.0091  -23.3796   24.2843 C   0  0  0  0  0  0  0  0  0  0  0  0
  -10.8787  -20.7930   22.2263 C   0  0  0  0  0  0  0  0  0  0  0  0
   -5.2585  -21.3359   22.3026 C   0  0  0  0  0  0  0  0  0  0  0  0
   -4.3613  -21.0962   21.0961 C   0  0  0  0  0  0  0  0  0  0  0  0
   -4.8443  -21.8294   19.8363 C   0  0  0  0  0  0  0  0  0  0  0  0
   -4.0184  -21.3487   18.6497 C   0  0  0  0  0  0  0  0  0  0  0  0
   -2.5248  -21.5881   18.8683 C   0  0  0  0  0  0  0  0  0  0  0  0
   -2.0133  -21.1189   20.2337 C   0  0  0  0  0  0  0  0  0  0  0  0
   -2.9230  -21.5352   21.3848 C   0  0  0  0  0  0  0  0  0  0  0  0
   -4.4024  -26.0300   24.0454 C   0  0  0  0  0  0  0  0  0  0  0  0
   -4.0544  -26.6664   25.2357 C   0  0  0  0  0  0  0  0  0  0  0  0
   -4.8568  -26.5508   26.3703 C   0  0  0  0  0  0  0  0  0  0  0  0
   -6.0265  -25.7965   26.3073 C   0  0  0  0  0  0  0  0  0  0  0  0
   -1.4099  -26.6299   24.6070 N   0  0  0  0  0  0  0  0  0  0  0  0
   -7.1214  -22.7242   23.5294 N   0  0  0  0  0  0  0  0  0  0  0  0
   -7.5313  -21.7487   22.6828 C   0  0  0  0  0  0  0  0  0  0  0  0
   -6.6093  -21.0851   21.9165 O   0  0  0  0  0  0  0  0  0  0  0  0
   -8.8840  -21.4663   22.5869 C   0  0  0  0  0  0  0  0  0  0  0  0
   -9.6439  -20.5916   21.8465 N   0  0  0  0  0  0  0  0  0  0  0  0
  -10.9666  -21.7602   23.1900 N   0  3  0  0  0  0  0  0  0  0  0  0
   -9.6965  -22.1997   23.4316 C   0  0  0  0  0  0  0  0  0  0  0  0
   -9.3327  -23.1409   24.3140 N   0  0  0  0  0  0  0  0  0  0  0  0
   -7.5581  -24.3600   25.1528 N   0  0  0  0  0  0  0  0  0  0  0  0
   -6.4023  -25.1458   25.1242 C   0  0  0  0  0  0  0  0  0  0  0  0
   -5.5625  -25.2555   24.0052 C   0  0  0  0  0  0  0  0  0  0  0  0
   -2.5572  -27.5988   25.3563 S   0  0  0  0  0  0  0  0  0  0  0  0
   -2.7202  -28.7837   24.5560 O   0  0  0  0  0  0  0  0  0  0  0  0
   -2.1662  -27.6563   26.7514 O   0  0  0  0  0  0  0  0  0  0  0  0
  -11.7513  -20.2757   21.8551 H   0  0  0  0  0  0  0  0  0  0  0  0
   -4.9974  -20.6317   23.1027 H   0  0  0  0  0  0  0  0  0  0  0  0
   -5.0788  -22.3539   22.6618 H   0  0  0  0  0  0  0  0  0  0  0  0
   -4.3811  -20.0171   20.8893 H   0  0  0  0  0  0  0  0  0  0  0  0
   -5.9043  -21.6420   19.6359 H   0  0  0  0  0  0  0  0  0  0  0  0
   -4.7326  -22.9154   19.9602 H   0  0  0  0  0  0  0  0  0  0  0  0
   -4.2013  -20.2765   18.5033 H   0  0  0  0  0  0  0  0  0  0  0  0
   -4.3501  -21.8539   17.7363 H   0  0  0  0  0  0  0  0  0  0  0  0
   -1.9603  -21.0795   18.0788 H   0  0  0  0  0  0  0  0  0  0  0  0
   -2.3239  -22.6607   18.7641 H   0  0  0  0  0  0  0  0  0  0  0  0
   -1.9306  -20.0255   20.2334 H   0  0  0  0  0  0  0  0  0  0  0  0
   -1.0053  -21.5140   20.4027 H   0  0  0  0  0  0  0  0  0  0  0  0
   -2.8821  -22.6267   21.5082 H   0  0  0  0  0  0  0  0  0  0  0  0
   -2.5638  -21.0994   22.3239 H   0  0  0  0  0  0  0  0  0  0  0  0
   -3.7981  -26.1253   23.1490 H   0  0  0  0  0  0  0  0  0  0  0  0
   -4.5835  -27.0335   27.3039 H   0  0  0  0  0  0  0  0  0  0  0  0
   -6.6394  -25.6973   27.1992 H   0  0  0  0  0  0  0  0  0  0  0  0
   -0.6739  -27.1787   24.1644 H   0  0  0  0  0  0  0  0  0  0  0  0
   -1.7621  -25.8536   24.0540 H   0  0  0  0  0  0  0  0  0  0  0  0
  -11.7916  -22.0959   23.6517 H   0  0  0  0  0  0  0  0  0  0  0  0
   -8.3040  -24.6696   25.7614 H   0  0  0  0  0  0  0  0  0  0  0  0
   -5.8143  -24.7576   23.0707 H   0  0  0  0  0  0  0  0  0  0  0  0
  1 15  2  0  0  0  0
  1 22  1  0  0  0  0
  1 23  1  0  0  0  0
  2 19  1  0  0  0  0
  2 20  2  0  0  0  0
  2 29  1  0  0  0  0
  3  4  1  0  0  0  0
  3 17  1  0  0  0  0
  3 30  1  0  0  0  0
  3 31  1  0  0  0  0
  4  5  1  0  0  0  0
  4  9  1  0  0  0  0
  4 32  1  0  0  0  0
  5  6  1  0  0  0  0
  5 33  1  0  0  0  0
  5 34  1  0  0  0  0
  6  7  1  0  0  0  0
  6 35  1  0  0  0  0
  6 36  1  0  0  0  0
  7  8  1  0  0  0  0
  7 37  1  0  0  0  0
  7 38  1  0  0  0  0
  8  9  1  0  0  0  0
  8 39  1  0  0  0  0
  8 40  1  0  0  0  0
  9 41  1  0  0  0  0
  9 42  1  0  0  0  0
 10 11  2  0  0  0  0
 10 25  1  0  0  0  0
 10 43  1  0  0  0  0
 11 12  1  0  0  0  0
 11 26  1  0  0  0  0
 12 13  2  0  0  0  0
 12 44  1  0  0  0  0
 13 24  1  0  0  0  0
 13 45  1  0  0  0  0
 14 26  1  0  0  0  0
 14 46  1  0  0  0  0
 14 47  1  0  0  0  0
 15 16  1  0  0  0  0
 16 17  1  0  0  0  0
 16 18  2  0  0  0  0
 18 19  1  0  0  0  0
 18 21  1  0  0  0  0
 20 21  1  0  0  0  0
 20 48  1  0  0  0  0
 21 22  2  0  0  0  0
 23 24  1  0  0  0  0
 23 49  1  0  0  0  0
 24 25  2  0  0  0  0
 25 50  1  0  0  0  0
 26 27  2  0  0  0  0
 26 28  2  0  0  0  0
M  CHG  1  20   1
M  END
$$$$
