4TK
 OpenBabel04111923063D

 36 36  0  0  1  0  0  0  0  0999 V2000
   89.0935  120.1968   12.2429 C   0  0  1  0  0  0  0  0  0  0  0  0
   89.6787  118.9655   11.8102 N   0  0  0  0  0  0  0  0  0  0  0  0
   91.0049  118.8950   11.5004 C   0  0  0  0  0  0  0  0  0  0  0  0
   91.7540  119.8759   11.6143 O   0  0  0  0  0  0  0  0  0  0  0  0
   91.4894  117.5851   10.8946 C   0  0  0  0  0  0  0  0  0  0  0  0
   92.9920  117.4567   11.1345 C   0  0  0  0  0  0  0  0  0  0  0  0
   90.7697  116.3907   11.5125 C   0  0  0  0  0  0  0  0  0  0  0  0
   91.2343  117.6152    9.3908 C   0  0  0  0  0  0  0  0  0  0  0  0
   88.0477  120.5932   11.1951 C   0  0  0  0  0  0  0  0  0  0  0  0
   87.0606  119.9085   10.9315 O   0  0  0  0  0  0  0  0  0  0  0  0
   88.3164  121.8109   10.6285 N   0  0  0  0  0  0  0  0  0  0  0  0
   87.4792  122.2636    9.5923 O   0  0  0  0  0  0  0  0  0  0  0  0
   86.4641  120.2766   17.7903 Br  0  0  0  0  0  0  0  0  0  0  0  0
   88.4705  120.1434   13.5801 C   0  0  0  0  0  0  0  0  0  0  0  0
   87.8114  121.2851   14.0345 C   0  0  0  0  0  0  0  0  0  0  0  0
   87.1950  121.3239   15.2705 C   0  0  0  0  0  0  0  0  0  0  0  0
   87.2787  120.2120   16.0908 C   0  0  0  0  0  0  0  0  0  0  0  0
   87.9563  119.0629   15.6818 C   0  0  0  0  0  0  0  0  0  0  0  0
   88.5538  119.0298   14.4289 C   0  0  0  0  0  0  0  0  0  0  0  0
   89.8730  120.9626   12.3220 H   0  0  0  0  0  0  0  0  0  0  0  0
   89.0720  118.1542   11.7141 H   0  0  0  0  0  0  0  0  0  0  0  0
   93.3711  116.5207   10.7138 H   0  0  0  0  0  0  0  0  0  0  0  0
   93.2125  117.4738   12.2077 H   0  0  0  0  0  0  0  0  0  0  0  0
   93.5310  118.2881   10.6639 H   0  0  0  0  0  0  0  0  0  0  0  0
   89.6905  116.4478   11.3378 H   0  0  0  0  0  0  0  0  0  0  0  0
   90.9391  116.3571   12.5934 H   0  0  0  0  0  0  0  0  0  0  0  0
   91.1124  115.4550   11.0656 H   0  0  0  0  0  0  0  0  0  0  0  0
   91.7546  118.4633    8.9299 H   0  0  0  0  0  0  0  0  0  0  0  0
   90.1656  117.7135    9.1799 H   0  0  0  0  0  0  0  0  0  0  0  0
   91.6000  116.6934    8.9227 H   0  0  0  0  0  0  0  0  0  0  0  0
   89.1699  122.3256   10.8215 H   0  0  0  0  0  0  0  0  0  0  0  0
   86.6016  122.3413   10.0178 H   0  0  0  0  0  0  0  0  0  0  0  0
   87.7328  122.1608   13.3837 H   0  0  0  0  0  0  0  0  0  0  0  0
   86.6706  122.2194   15.5772 H   0  0  0  0  0  0  0  0  0  0  0  0
   88.0274  118.1958   16.3189 H   0  0  0  0  0  0  0  0  0  0  0  0
   89.0917  118.1412   14.0979 H   0  0  0  0  0  0  0  0  0  0  0  0
  1  2  1  0  0  0  0
  1  9  1  0  0  0  0
  1 14  1  0  0  0  0
  1 20  1  1  0  0  0
  2  3  1  0  0  0  0
  2 21  1  0  0  0  0
  3  4  2  0  0  0  0
  3  5  1  0  0  0  0
  5  6  1  0  0  0  0
  5  7  1  0  0  0  0
  5  8  1  0  0  0  0
  6 22  1  0  0  0  0
  6 23  1  0  0  0  0
  6 24  1  0  0  0  0
  7 25  1  0  0  0  0
  7 26  1  0  0  0  0
  7 27  1  0  0  0  0
  8 28  1  0  0  0  0
  8 29  1  0  0  0  0
  8 30  1  0  0  0  0
  9 10  2  0  0  0  0
  9 11  1  0  0  0  0
 11 12  1  0  0  0  0
 11 31  1  0  0  0  0
 12 32  1  0  0  0  0
 13 17  1  0  0  0  0
 14 15  2  0  0  0  0
 14 19  1  0  0  0  0
 15 16  1  0  0  0  0
 15 33  1  0  0  0  0
 16 17  2  0  0  0  0
 16 34  1  0  0  0  0
 17 18  1  0  0  0  0
 18 19  2  0  0  0  0
 18 35  1  0  0  0  0
 19 36  1  0  0  0  0
M  END
$$$$
