4TL
 OpenBabel04111923073D

 46 47  0  0  1  0  0  0  0  0999 V2000
   18.5035  117.4726  129.7385 C   0  0  0  0  0  0  0  0  0  0  0  0
   16.9911  117.6777  129.5485 C   0  0  0  0  0  0  0  0  0  0  0  0
   16.2677  116.3545  129.8214 C   0  0  0  0  0  0  0  0  0  0  0  0
   16.7281  118.1390  128.1048 C   0  0  0  0  0  0  0  0  0  0  0  0
   16.5370  118.8163  130.4643 C   0  0  0  0  0  0  0  0  0  0  0  0
   17.3021  119.7316  130.7805 O   0  0  0  0  0  0  0  0  0  0  0  0
   15.2004  118.8738  130.7607 N   0  0  0  0  0  0  0  0  0  0  0  0
   14.5998  120.1506  131.0893 C   0  0  1  0  0  0  0  0  0  0  0  0
   13.5766  120.4786  129.9894 C   0  0  0  0  0  0  0  0  0  0  0  0
   12.7247  119.6702  129.6213 O   0  0  0  0  0  0  0  0  0  0  0  0
   13.7408  121.7549  129.4821 N   0  0  0  0  0  0  0  0  0  0  0  0
   12.8939  122.1366  128.4254 O   0  0  0  0  0  0  0  0  0  0  0  0
   13.9894  120.2366  132.4641 C   0  0  0  0  0  0  0  0  0  0  0  0
   13.6393  121.5176  132.9146 C   0  0  0  0  0  0  0  0  0  0  0  0
   13.1587  121.7081  134.1988 C   0  0  0  0  0  0  0  0  0  0  0  0
   13.8017  119.1395  133.3153 C   0  0  0  0  0  0  0  0  0  0  0  0
   13.3225  119.3350  134.6126 C   0  0  0  0  0  0  0  0  0  0  0  0
   13.0322  120.6240  135.0734 C   0  0  0  0  0  0  0  0  0  0  0  0
   12.7297  120.8932  136.4742 C   0  0  0  0  0  0  0  0  0  0  0  0
   11.6163  120.3557  137.1204 C   0  0  0  0  0  0  0  0  0  0  0  0
   11.3717  120.6855  138.4569 C   0  0  0  0  0  0  0  0  0  0  0  0
   10.2937  120.1779  139.0635 F   0  0  0  0  0  0  0  0  0  0  0  0
   12.2302  121.5355  139.1437 C   0  0  0  0  0  0  0  0  0  0  0  0
   11.9797  121.8457  140.4226 F   0  0  0  0  0  0  0  0  0  0  0  0
   13.3426  122.0669  138.5106 C   0  0  0  0  0  0  0  0  0  0  0  0
   14.1707  122.8863  139.1566 F   0  0  0  0  0  0  0  0  0  0  0  0
   13.5945  121.7491  137.1833 C   0  0  0  0  0  0  0  0  0  0  0  0
   18.8749  116.6443  129.1284 H   0  0  0  0  0  0  0  0  0  0  0  0
   18.7402  117.2588  130.7881 H   0  0  0  0  0  0  0  0  0  0  0  0
   19.0681  118.3707  129.4573 H   0  0  0  0  0  0  0  0  0  0  0  0
   15.1869  116.4295  129.6616 H   0  0  0  0  0  0  0  0  0  0  0  0
   16.4262  116.0245  130.8535 H   0  0  0  0  0  0  0  0  0  0  0  0
   16.6262  115.5660  129.1505 H   0  0  0  0  0  0  0  0  0  0  0  0
   17.2409  119.0877  127.8991 H   0  0  0  0  0  0  0  0  0  0  0  0
   15.6615  118.3066  127.9233 H   0  0  0  0  0  0  0  0  0  0  0  0
   17.0887  117.4024  127.3798 H   0  0  0  0  0  0  0  0  0  0  0  0
   14.5510  118.1644  130.4354 H   0  0  0  0  0  0  0  0  0  0  0  0
   15.3889  120.9146  131.0604 H   0  0  0  0  0  0  0  0  0  0  0  0
   14.5681  122.3118  129.6690 H   0  0  0  0  0  0  0  0  0  0  0  0
   13.3073  122.9452  128.0762 H   0  0  0  0  0  0  0  0  0  0  0  0
   13.7789  122.3913  132.2822 H   0  0  0  0  0  0  0  0  0  0  0  0
   12.9352  122.7203  134.5279 H   0  0  0  0  0  0  0  0  0  0  0  0
   14.0689  118.1325  133.0010 H   0  0  0  0  0  0  0  0  0  0  0  0
   13.2387  118.4782  135.2798 H   0  0  0  0  0  0  0  0  0  0  0  0
   10.9218  119.6972  136.5953 H   0  0  0  0  0  0  0  0  0  0  0  0
   14.4708  122.1772  136.7067 H   0  0  0  0  0  0  0  0  0  0  0  0
  1  2  1  0  0  0  0
  1 28  1  0  0  0  0
  1 29  1  0  0  0  0
  1 30  1  0  0  0  0
  2  3  1  0  0  0  0
  2  4  1  0  0  0  0
  2  5  1  0  0  0  0
  3 31  1  0  0  0  0
  3 32  1  0  0  0  0
  3 33  1  0  0  0  0
  4 34  1  0  0  0  0
  4 35  1  0  0  0  0
  4 36  1  0  0  0  0
  5  6  2  0  0  0  0
  5  7  1  0  0  0  0
  7  8  1  0  0  0  0
  7 37  1  0  0  0  0
  8  9  1  0  0  0  0
  8 13  1  0  0  0  0
  8 38  1  6  0  0  0
  9 10  2  0  0  0  0
  9 11  1  0  0  0  0
 11 12  1  0  0  0  0
 11 39  1  0  0  0  0
 12 40  1  0  0  0  0
 13 14  2  0  0  0  0
 13 16  1  0  0  0  0
 14 15  1  0  0  0  0
 14 41  1  0  0  0  0
 15 18  2  0  0  0  0
 15 42  1  0  0  0  0
 16 17  2  0  0  0  0
 16 43  1  0  0  0  0
 17 18  1  0  0  0  0
 17 44  1  0  0  0  0
 18 19  1  0  0  0  0
 19 20  2  0  0  0  0
 19 27  1  0  0  0  0
 20 21  1  0  0  0  0
 20 45  1  0  0  0  0
 21 22  1  0  0  0  0
 21 23  2  0  0  0  0
 23 24  1  0  0  0  0
 23 25  1  0  0  0  0
 25 26  1  0  0  0  0
 25 27  2  0  0  0  0
 27 46  1  0  0  0  0
M  END
$$$$
