4ZE
 OpenBabel04111920083D

 18 18  0  0  0  0  0  0  0  0999 V2000
    3.3374   13.8333   40.3451 C   0  0  0  0  0  0  0  0  0  0  0  0
    3.9037   13.3185   41.6278 C   0  0  0  0  0  0  0  0  0  0  0  0
    4.3684   12.0047   41.7290 C   0  0  0  0  0  0  0  0  0  0  0  0
    4.8943   11.5315   42.9330 C   0  0  0  0  0  0  0  0  0  0  0  0
    5.3464   10.2442   43.0289 N   0  0  0  0  0  0  0  0  0  0  0  0
    4.9644   12.3568   44.0443 C   0  0  0  0  0  0  0  0  0  0  0  0
    4.5050   13.6674   43.9657 C   0  0  0  0  0  0  0  0  0  0  0  0
    3.9820   14.1271   42.7562 C   0  0  0  0  0  0  0  0  0  0  0  0
    3.5397   15.4200   42.7122 O   0  0  0  0  0  0  0  0  0  0  0  0
    3.3567   13.0637   39.5739 H   0  0  0  0  0  0  0  0  0  0  0  0
    3.9240   14.6927   39.9995 H   0  0  0  0  0  0  0  0  0  0  0  0
    2.2993   14.1503   40.5000 H   0  0  0  0  0  0  0  0  0  0  0  0
    4.3176   11.3504   40.8653 H   0  0  0  0  0  0  0  0  0  0  0  0
    5.7270    9.9061   43.9059 H   0  0  0  0  0  0  0  0  0  0  0  0
    5.3022    9.6219   42.2288 H   0  0  0  0  0  0  0  0  0  0  0  0
    5.3751   11.9889   44.9792 H   0  0  0  0  0  0  0  0  0  0  0  0
    4.5512   14.3160   44.8232 H   0  0  0  0  0  0  0  0  0  0  0  0
    3.2108   15.5838   41.8147 H   0  0  0  0  0  0  0  0  0  0  0  0
  1  2  1  0  0  0  0
  1 10  1  0  0  0  0
  1 11  1  0  0  0  0
  1 12  1  0  0  0  0
  2  3  2  0  0  0  0
  2  8  1  0  0  0  0
  3  4  1  0  0  0  0
  3 13  1  0  0  0  0
  4  5  1  0  0  0  0
  4  6  2  0  0  0  0
  5 14  1  0  0  0  0
  5 15  1  0  0  0  0
  6  7  1  0  0  0  0
  6 16  1  0  0  0  0
  7  8  2  0  0  0  0
  7 17  1  0  0  0  0
  8  9  1  0  0  0  0
  9 18  1  0  0  0  0
M  END
$$$$
