50Q
 OpenBabel04111918093D

 25 26  0  0  0  0  0  0  0  0999 V2000
    5.5500   12.1443   24.0129 C   0  0  0  0  0  0  0  0  0  0  0  0
    4.5685   14.0919   25.0664 C   0  0  0  0  0  0  0  0  0  0  0  0
    3.3387   13.4210   25.1707 C   0  0  0  0  0  0  0  0  0  0  0  0
   -2.5890   11.3013   25.1836 O   0  0  0  0  0  0  0  0  0  0  0  0
   -1.4970   11.6790   24.4659 C   0  0  0  0  0  0  0  0  0  0  0  0
   -1.6220   12.3209   23.2436 C   0  0  0  0  0  0  0  0  0  0  0  0
   -0.4524   12.6693   22.5562 C   0  0  0  0  0  0  0  0  0  0  0  0
   -0.4987   13.2917   21.3436 O   0  0  0  0  0  0  0  0  0  0  0  0
    0.8147   12.3807   23.0753 C   0  0  0  0  0  0  0  0  0  0  0  0
    4.3251   11.4719   24.1194 C   0  0  0  0  0  0  0  0  0  0  0  0
    5.6705   13.4543   24.4902 C   0  0  0  0  0  0  0  0  0  0  0  0
    3.2284   12.1148   24.6888 C   0  0  0  0  0  0  0  0  0  0  0  0
    7.2182   14.2137   24.3578 Cl  0  0  0  0  0  0  0  0  0  0  0  0
    2.0996   11.3613   24.8951 O   0  0  0  0  0  0  0  0  0  0  0  0
    4.6577   15.6953   25.7051 Cl  0  0  0  0  0  0  0  0  0  0  0  0
    0.9094   11.7503   24.3134 C   0  0  0  0  0  0  0  0  0  0  0  0
   -0.2442   11.3815   24.9977 C   0  0  0  0  0  0  0  0  0  0  0  0
    6.4046   11.6362   23.5745 H   0  0  0  0  0  0  0  0  0  0  0  0
    2.4918   13.8982   25.6503 H   0  0  0  0  0  0  0  0  0  0  0  0
   -3.2132   12.0458   25.1965 H   0  0  0  0  0  0  0  0  0  0  0  0
   -2.5918   12.5045   22.7969 H   0  0  0  0  0  0  0  0  0  0  0  0
   -1.1180   14.0368   21.4232 H   0  0  0  0  0  0  0  0  0  0  0  0
    1.6931   12.6363   22.4947 H   0  0  0  0  0  0  0  0  0  0  0  0
    4.2430   10.4464   23.7821 H   0  0  0  0  0  0  0  0  0  0  0  0
   -0.1804   10.8580   25.9469 H   0  0  0  0  0  0  0  0  0  0  0  0
  1 10  2  0  0  0  0
  1 11  1  0  0  0  0
  1 18  1  0  0  0  0
  2  3  1  0  0  0  0
  2 11  2  0  0  0  0
  2 15  1  0  0  0  0
  3 12  2  0  0  0  0
  3 19  1  0  0  0  0
  4  5  1  0  0  0  0
  4 20  1  0  0  0  0
  5  6  2  0  0  0  0
  5 17  1  0  0  0  0
  6  7  1  0  0  0  0
  6 21  1  0  0  0  0
  7  8  1  0  0  0  0
  7  9  2  0  0  0  0
  8 22  1  0  0  0  0
  9 16  1  0  0  0  0
  9 23  1  0  0  0  0
 10 12  1  0  0  0  0
 10 24  1  0  0  0  0
 11 13  1  0  0  0  0
 12 14  1  0  0  0  0
 14 16  1  0  0  0  0
 16 17  2  0  0  0  0
 17 25  1  0  0  0  0
M  END
$$$$
