510
 OpenBabel04111923053D

 50 51  0  0  1  0  0  0  0  0999 V2000
   16.7143    7.5580   12.8408 C   0  0  1  0  0  0  0  0  0  0  0  0
   15.4070    7.7035   12.1084 C   0  0  1  0  0  0  0  0  0  0  0  0
   15.3305    8.9834   11.3068 C   0  0  1  0  0  0  0  0  0  0  0  0
   16.3176   10.0998   11.5915 C   0  0  1  0  0  0  0  0  0  0  0  0
   17.1341    9.9584   12.8514 C   0  0  2  0  0  0  0  0  0  0  0  0
   18.5940   10.2523   12.6827 C   0  0  0  0  0  0  0  0  0  0  0  0
   15.1286    6.5776   11.2609 O   0  0  0  0  0  0  0  0  0  0  0  0
   15.2429    8.7364    9.9035 O   0  0  0  0  0  0  0  0  0  0  0  0
   17.1269   10.3680   10.4378 O   0  0  0  0  0  0  0  0  0  0  0  0
   19.0540   10.8799   13.8887 O   0  0  0  0  0  0  0  0  0  0  0  0
   17.1101    8.7341   13.4719 O   0  0  0  0  0  0  0  0  0  0  0  0
   16.3333    6.5637   14.2887 S   0  0  0  0  0  0  0  0  0  0  0  0
   15.0726    6.9730   14.8437 O   0  0  0  0  0  0  0  0  0  0  0  0
   17.5315    6.5377   15.1525 O   0  0  0  0  0  0  0  0  0  0  0  0
   16.1264    5.0440   13.6769 N   0  0  0  0  0  0  0  0  0  0  0  0
   15.4324    4.2320   14.6644 C   0  0  0  0  0  0  0  0  0  0  0  0
   16.1394    2.8978   14.7318 C   0  0  2  0  0  0  0  0  0  0  0  0
   16.4208    2.5167   16.0743 O   0  0  0  0  0  0  0  0  0  0  0  0
   15.5347    1.4036   16.7581 S   0  0  0  0  0  0  0  0  0  0  0  0
   14.1644    1.6152   16.3518 O   0  0  0  0  0  0  0  0  0  0  0  0
   15.8712    1.3655   18.1907 O   0  0  0  0  0  0  0  0  0  0  0  0
   16.0660   -0.0019   16.0159 N   0  0  0  0  0  0  0  0  0  0  0  0
   17.4749    3.1640   14.1800 C   0  0  0  0  0  0  0  0  0  0  0  0
   17.2339    4.2670   13.1721 C   0  0  1  0  0  0  0  0  0  0  0  0
   16.9342    3.6021   11.8787 C   0  0  0  0  0  0  0  0  0  0  0  0
   17.7350    3.7532   11.0110 O   0  0  0  0  0  0  0  0  0  0  0  0
   15.9285    2.7396   11.7464 O   0  0  0  0  0  0  0  0  0  0  0  0
   16.0767    1.6593   10.7681 C   0  0  0  0  0  0  0  0  0  0  0  0
   17.4632    7.1024   12.1486 H   0  0  0  0  0  0  0  0  0  0  0  0
   14.6121    7.7937   12.8516 H   0  0  0  0  0  0  0  0  0  0  0  0
   14.3782    9.4166   11.6208 H   0  0  0  0  0  0  0  0  0  0  0  0
   15.7157   10.9940   11.7419 H   0  0  0  0  0  0  0  0  0  0  0  0
   16.7762   10.7013   13.5802 H   0  0  0  0  0  0  0  0  0  0  0  0
   18.7637   10.9442   11.8569 H   0  0  0  0  0  0  0  0  0  0  0  0
   19.1510    9.3136   12.5333 H   0  0  0  0  0  0  0  0  0  0  0  0
   15.8325    6.5374   10.5829 H   0  0  0  0  0  0  0  0  0  0  0  0
   14.6022    8.0063    9.7839 H   0  0  0  0  0  0  0  0  0  0  0  0
   16.5118   10.4028    9.6771 H   0  0  0  0  0  0  0  0  0  0  0  0
   18.8494   10.2544   14.6106 H   0  0  0  0  0  0  0  0  0  0  0  0
   14.4234    4.1806   14.2345 H   0  0  0  0  0  0  0  0  0  0  0  0
   15.4616    4.7611   15.6184 H   0  0  0  0  0  0  0  0  0  0  0  0
   15.7274    2.1149   14.0913 H   0  0  0  0  0  0  0  0  0  0  0  0
   15.6298   -0.9063   16.2361 H   0  0  0  0  0  0  0  0  0  0  0  0
   16.7820    0.0222   15.2682 H   0  0  0  0  0  0  0  0  0  0  0  0
   17.8038    2.2262   13.7004 H   0  0  0  0  0  0  0  0  0  0  0  0
   18.1078    3.4400   15.0331 H   0  0  0  0  0  0  0  0  0  0  0  0
   18.1208    4.9019   13.1368 H   0  0  0  0  0  0  0  0  0  0  0  0
   15.1503    1.0662   10.7393 H   0  0  0  0  0  0  0  0  0  0  0  0
   16.8863    0.9913   11.1012 H   0  0  0  0  0  0  0  0  0  0  0  0
   16.2856    2.0256    9.7549 H   0  0  0  0  0  0  0  0  0  0  0  0
  1  2  1  0  0  0  0
  1 11  1  0  0  0  0
  1 12  1  0  0  0  0
  1 29  1  6  0  0  0
  2  3  1  0  0  0  0
  2  7  1  0  0  0  0
  2 30  1  1  0  0  0
  3  4  1  0  0  0  0
  3  8  1  0  0  0  0
  3 31  1  1  0  0  0
  4  5  1  0  0  0  0
  4  9  1  0  0  0  0
  4 32  1  1  0  0  0
  5  6  1  0  0  0  0
  5 11  1  0  0  0  0
  5 33  1  1  0  0  0
  6 10  1  0  0  0  0
  6 34  1  0  0  0  0
  6 35  1  0  0  0  0
  7 36  1  0  0  0  0
  8 37  1  0  0  0  0
  9 38  1  0  0  0  0
 10 39  1  0  0  0  0
 12 13  2  0  0  0  0
 12 14  2  0  0  0  0
 12 15  1  0  0  0  0
 15 16  1  0  0  0  0
 15 24  1  0  0  0  0
 16 17  1  0  0  0  0
 16 40  1  0  0  0  0
 16 41  1  0  0  0  0
 17 18  1  0  0  0  0
 17 23  1  0  0  0  0
 17 42  1  6  0  0  0
 18 19  1  0  0  0  0
 19 20  2  0  0  0  0
 19 21  2  0  0  0  0
 19 22  1  0  0  0  0
 22 43  1  0  0  0  0
 22 44  1  0  0  0  0
 23 24  1  0  0  0  0
 23 45  1  0  0  0  0
 23 46  1  0  0  0  0
 24 25  1  0  0  0  0
 24 47  1  6  0  0  0
 25 26  2  0  0  0  0
 25 27  1  0  0  0  0
 27 28  1  0  0  0  0
 28 48  1  0  0  0  0
 28 49  1  0  0  0  0
 28 50  1  0  0  0  0
M  END
$$$$
