526
 OpenBabel04111920223D

 75 78  0  0  1  0  0  0  0  0999 V2000
    8.9574   27.2358    8.6351 C   0  0  0  0  0  0  0  0  0  0  0  0
    8.3189   27.7802    7.5429 C   0  0  0  0  0  0  0  0  0  0  0  0
    8.4429   27.2191    6.2787 C   0  0  0  0  0  0  0  0  0  0  0  0
    9.2245   26.0749    6.0688 C   0  0  0  0  0  0  0  0  0  0  0  0
    9.8724   25.5298    7.1821 C   0  0  0  0  0  0  0  0  0  0  0  0
    9.7325   26.1047    8.4551 C   0  0  0  0  0  0  0  0  0  0  0  0
    9.3259   25.6221    4.6410 C   0  0  0  0  0  0  0  0  0  0  0  0
    9.4764   24.1375    4.3207 C   0  0  2  0  0  0  0  0  0  0  0  0
   10.9372   23.6936    4.4179 C   0  0  0  0  0  0  0  0  0  0  0  0
   11.6179   24.1423    5.6382 N   0  0  0  0  0  0  0  0  0  0  0  0
   10.8617   24.0699    7.1186 S   0  0  0  0  0  0  0  0  0  0  0  0
   12.8712   24.8820    5.4997 C   0  0  0  0  0  0  0  0  0  0  0  0
   13.9927   23.9479    5.0596 C   0  0  2  0  0  0  0  0  0  0  0  0
   14.3904   22.8679    6.0707 C   0  0  2  0  0  0  0  0  0  0  0  0
   15.1322   24.7289    4.6710 O   0  0  0  0  0  0  0  0  0  0  0  0
   15.1111   23.3869    7.3165 C   0  0  0  0  0  0  0  0  0  0  0  0
   15.2504   21.9248    5.3692 N   0  0  0  0  0  0  0  0  0  0  0  0
   14.8440   20.6917    4.9863 C   0  0  0  0  0  0  0  0  0  0  0  0
   15.8971   20.0681    4.4401 O   0  0  0  0  0  0  0  0  0  0  0  0
   13.7139   20.2298    5.0896 O   0  0  0  0  0  0  0  0  0  0  0  0
   15.4062   22.2544    8.2600 C   0  0  0  0  0  0  0  0  0  0  0  0
   14.3913   21.7252    9.0579 C   0  0  0  0  0  0  0  0  0  0  0  0
   14.6569   20.6464    9.8881 C   0  0  0  0  0  0  0  0  0  0  0  0
   15.9286   20.0861    9.9155 C   0  0  0  0  0  0  0  0  0  0  0  0
   16.9424   20.6060    9.1153 C   0  0  0  0  0  0  0  0  0  0  0  0
   16.6826   21.6898    8.2911 C   0  0  0  0  0  0  0  0  0  0  0  0
   11.8967   24.2237    8.1461 O   0  0  0  0  0  0  0  0  0  0  0  0
    9.9655   22.9724    7.1318 O   0  0  0  0  0  0  0  0  0  0  0  0
    8.8967   23.7984    2.9106 C   0  0  0  0  0  0  0  0  0  0  0  0
    7.3834   23.9582    2.9082 C   0  0  0  0  0  0  0  0  0  0  0  0
    9.1574   22.3476    2.5276 C   0  0  0  0  0  0  0  0  0  0  0  0
    9.4661   24.6856    1.8069 C   0  0  0  0  0  0  0  0  0  0  0  0
    7.5612   28.8728    7.6950 F   0  0  0  0  0  0  0  0  0  0  0  0
   15.6496   18.7923    3.8327 C   0  0  2  0  0  0  0  0  0  0  0  0
   17.0115   18.1978    3.5357 C   0  0  0  0  0  0  0  0  0  0  0  0
   15.0175   19.0165    2.4789 C   0  0  0  0  0  0  0  0  0  0  0  0
   17.3188   18.6100    2.1926 O   0  0  0  0  0  0  0  0  0  0  0  0
   16.0691   18.5718    1.4935 C   0  0  0  0  0  0  0  0  0  0  0  0
    8.8571   27.6935    9.6129 H   0  0  0  0  0  0  0  0  0  0  0  0
    7.9276   27.6818    5.4397 H   0  0  0  0  0  0  0  0  0  0  0  0
   10.2342   25.6502    9.3093 H   0  0  0  0  0  0  0  0  0  0  0  0
   10.1624   26.1643    4.1949 H   0  0  0  0  0  0  0  0  0  0  0  0
    8.4072   25.9737    4.1631 H   0  0  0  0  0  0  0  0  0  0  0  0
    8.8902   23.5666    5.0434 H   0  0  0  0  0  0  0  0  0  0  0  0
   11.4814   24.0563    3.5356 H   0  0  0  0  0  0  0  0  0  0  0  0
   10.9650   22.5960    4.3985 H   0  0  0  0  0  0  0  0  0  0  0  0
   13.1465   25.3524    6.4474 H   0  0  0  0  0  0  0  0  0  0  0  0
   12.7675   25.6845    4.7597 H   0  0  0  0  0  0  0  0  0  0  0  0
   13.6477   23.4228    4.1638 H   0  0  0  0  0  0  0  0  0  0  0  0
   13.4894   22.3409    6.3950 H   0  0  0  0  0  0  0  0  0  0  0  0
   15.4919   25.1561    5.4647 H   0  0  0  0  0  0  0  0  0  0  0  0
   14.4922   24.1171    7.8425 H   0  0  0  0  0  0  0  0  0  0  0  0
   16.0595   23.8679    7.0498 H   0  0  0  0  0  0  0  0  0  0  0  0
   16.1889   22.2093    5.1320 H   0  0  0  0  0  0  0  0  0  0  0  0
   13.3949   22.1585    9.0318 H   0  0  0  0  0  0  0  0  0  0  0  0
   13.8714   20.2399   10.5152 H   0  0  0  0  0  0  0  0  0  0  0  0
   16.1317   19.2437   10.5616 H   0  0  0  0  0  0  0  0  0  0  0  0
   17.9334   20.1668    9.1372 H   0  0  0  0  0  0  0  0  0  0  0  0
   17.4702   22.0984    7.6679 H   0  0  0  0  0  0  0  0  0  0  0  0
    6.9939   23.7142    1.9167 H   0  0  0  0  0  0  0  0  0  0  0  0
    7.0997   24.9803    3.1455 H   0  0  0  0  0  0  0  0  0  0  0  0
    6.9436   23.2804    3.6429 H   0  0  0  0  0  0  0  0  0  0  0  0
   10.2276   22.1462    2.4928 H   0  0  0  0  0  0  0  0  0  0  0  0
    8.7392   22.1486    1.5365 H   0  0  0  0  0  0  0  0  0  0  0  0
    8.6835   21.6831    3.2542 H   0  0  0  0  0  0  0  0  0  0  0  0
    9.3010   25.7405    2.0361 H   0  0  0  0  0  0  0  0  0  0  0  0
    8.9688   24.4569    0.8583 H   0  0  0  0  0  0  0  0  0  0  0  0
   10.5359   24.5066    1.6882 H   0  0  0  0  0  0  0  0  0  0  0  0
   15.0516   18.1438    4.4802 H   0  0  0  0  0  0  0  0  0  0  0  0
   16.9891   17.1035    3.5688 H   0  0  0  0  0  0  0  0  0  0  0  0
   17.7803   18.5722    4.2171 H   0  0  0  0  0  0  0  0  0  0  0  0
   14.7807   20.0752    2.3242 H   0  0  0  0  0  0  0  0  0  0  0  0
   14.1047   18.4288    2.3605 H   0  0  0  0  0  0  0  0  0  0  0  0
   16.1040   19.2283    0.6216 H   0  0  0  0  0  0  0  0  0  0  0  0
   15.8820   17.5413    1.1704 H   0  0  0  0  0  0  0  0  0  0  0  0
  1  2  2  0  0  0  0
  1  6  1  0  0  0  0
  1 39  1  0  0  0  0
  2  3  1  0  0  0  0
  2 33  1  0  0  0  0
  3  4  2  0  0  0  0
  3 40  1  0  0  0  0
  4  5  1  0  0  0  0
  4  7  1  0  0  0  0
  5  6  2  0  0  0  0
  5 11  1  0  0  0  0
  6 41  1  0  0  0  0
  7  8  1  0  0  0  0
  7 42  1  0  0  0  0
  7 43  1  0  0  0  0
  8  9  1  0  0  0  0
  8 29  1  0  0  0  0
  8 44  1  1  0  0  0
  9 10  1  0  0  0  0
  9 45  1  0  0  0  0
  9 46  1  0  0  0  0
 10 11  1  0  0  0  0
 10 12  1  0  0  0  0
 11 27  2  0  0  0  0
 11 28  2  0  0  0  0
 12 13  1  0  0  0  0
 12 47  1  0  0  0  0
 12 48  1  0  0  0  0
 13 14  1  0  0  0  0
 13 15  1  0  0  0  0
 13 49  1  6  0  0  0
 14 16  1  0  0  0  0
 14 17  1  0  0  0  0
 14 50  1  1  0  0  0
 15 51  1  0  0  0  0
 16 21  1  0  0  0  0
 16 52  1  0  0  0  0
 16 53  1  0  0  0  0
 17 18  1  0  0  0  0
 17 54  1  0  0  0  0
 18 19  1  0  0  0  0
 18 20  2  0  0  0  0
 19 34  1  0  0  0  0
 21 22  2  0  0  0  0
 21 26  1  0  0  0  0
 22 23  1  0  0  0  0
 22 55  1  0  0  0  0
 23 24  2  0  0  0  0
 23 56  1  0  0  0  0
 24 25  1  0  0  0  0
 24 57  1  0  0  0  0
 25 26  2  0  0  0  0
 25 58  1  0  0  0  0
 26 59  1  0  0  0  0
 29 30  1  0  0  0  0
 29 31  1  0  0  0  0
 29 32  1  0  0  0  0
 30 60  1  0  0  0  0
 30 61  1  0  0  0  0
 30 62  1  0  0  0  0
 31 63  1  0  0  0  0
 31 64  1  0  0  0  0
 31 65  1  0  0  0  0
 32 66  1  0  0  0  0
 32 67  1  0  0  0  0
 32 68  1  0  0  0  0
 34 35  1  0  0  0  0
 34 36  1  0  0  0  0
 34 69  1  1  0  0  0
 35 37  1  0  0  0  0
 35 70  1  0  0  0  0
 35 71  1  0  0  0  0
 36 38  1  0  0  0  0
 36 72  1  0  0  0  0
 36 73  1  0  0  0  0
 37 38  1  0  0  0  0
 38 74  1  0  0  0  0
 38 75  1  0  0  0  0
M  END
$$$$
