594
 OpenBabel04111922343D

 64 68  0  0  1  0  0  0  0  0999 V2000
   -2.2171  -10.0321   13.8163 C   0  0  1  0  0  0  0  0  0  0  0  0
   -0.9976   -9.3270   13.5016 N   0  0  0  0  0  0  0  0  0  0  0  0
   -0.0311   -9.5008   14.4613 C   0  0  0  0  0  0  0  0  0  0  0  0
    1.0342   -8.9706   14.4874 O   0  0  0  0  0  0  0  0  0  0  0  0
   -0.4909  -10.4473   15.3383 N   0  0  0  0  0  0  0  0  0  0  0  0
   -1.8985  -10.6987   15.1632 C   0  0  1  0  0  0  0  0  0  0  0  0
   -2.6522  -10.0582   16.3112 C   0  0  0  0  0  0  0  0  0  0  0  0
   -3.4648   -8.5876   15.6609 S   0  0  0  0  0  0  0  0  0  0  0  0
   -3.4176   -9.1061   13.9285 C   0  0  1  0  0  0  0  0  0  0  0  0
   -3.3144   -7.8953   12.9976 C   0  0  0  0  0  0  0  0  0  0  0  0
   -3.5858   -8.3489   11.5654 C   0  0  0  0  0  0  0  0  0  0  0  0
   -3.8973   -7.1837   10.6406 C   0  0  0  0  0  0  0  0  0  0  0  0
   -4.1785   -7.6630    9.2167 C   0  0  0  0  0  0  0  0  0  0  0  0
   -4.6229   -6.4813    8.3347 C   0  0  0  0  0  0  0  0  0  0  0  0
   -5.7426   -6.0082    8.5261 O   0  0  0  0  0  0  0  0  0  0  0  0
   -3.6441   -6.0808    7.5268 N   0  0  0  0  0  0  0  0  0  0  0  0
   -4.0630   -5.0572    6.3742 S   0  0  0  0  0  0  0  0  0  0  0  0
   -5.3098   -5.3613    5.6810 O   0  0  0  0  0  0  0  0  0  0  0  0
   -2.9616   -4.7486    5.4642 O   0  0  0  0  0  0  0  0  0  0  0  0
   -4.3640   -3.6422    7.1593 O   0  0  0  0  0  0  0  0  0  0  0  0
   -3.2943   -2.8719    7.6966 C   0  0  0  0  0  0  0  0  0  0  0  0
   -3.7276   -1.4064    7.7353 C   0  0  1  0  0  0  0  0  0  0  0  0
   -4.8748   -1.2150    8.5958 O   0  0  0  0  0  0  0  0  0  0  0  0
   -2.6515   -0.4737    8.2629 C   0  0  1  0  0  0  0  0  0  0  0  0
   -1.7846   -0.0814    7.2022 O   0  0  0  0  0  0  0  0  0  0  0  0
   -3.4802    0.6922    8.7721 C   0  0  2  0  0  0  0  0  0  0  0  0
   -2.8150    1.4199    9.6991 F   0  0  0  0  0  0  0  0  0  0  0  0
   -4.7464    0.0353    9.3027 C   0  0  2  0  0  0  0  0  0  0  0  0
   -4.8039   -0.2401   10.7307 N   0  3  0  0  0  0  0  0  0  0  0  0
   -3.7583   -0.3414   11.6232 C   0  0  0  0  0  0  0  0  0  0  0  0
   -4.1687   -0.5893   12.8527 N   0  0  0  0  0  0  0  0  0  0  0  0
   -5.5478   -0.6693   12.7518 C   0  0  0  0  0  0  0  0  0  0  0  0
   -5.9722   -0.4506   11.4578 C   0  0  0  0  0  0  0  0  0  0  0  0
   -7.2340   -0.4429   11.0139 N   0  0  0  0  0  0  0  0  0  0  0  0
   -8.1215   -0.7042   11.9955 C   0  0  0  0  0  0  0  0  0  0  0  0
   -7.8611   -0.9237   13.3020 N   0  0  0  0  0  0  0  0  0  0  0  0
   -6.5619   -0.9151   13.6982 C   0  0  0  0  0  0  0  0  0  0  0  0
   -6.2639   -1.1365   15.0222 N   0  0  0  0  0  0  0  0  0  0  0  0
   -2.3939  -10.7799   13.0374 H   0  0  0  0  0  0  0  0  0  0  0  0
   -0.8470   -8.7026   12.7207 H   0  0  0  0  0  0  0  0  0  0  0  0
    0.1039  -10.7937   16.0739 H   0  0  0  0  0  0  0  0  0  0  0  0
   -2.0669  -11.7753   15.1318 H   0  0  0  0  0  0  0  0  0  0  0  0
   -1.9693   -9.7558   17.1166 H   0  0  0  0  0  0  0  0  0  0  0  0
   -3.3946  -10.7434   16.7158 H   0  0  0  0  0  0  0  0  0  0  0  0
   -4.3366   -9.6504   13.7024 H   0  0  0  0  0  0  0  0  0  0  0  0
   -2.3167   -7.4394   13.0536 H   0  0  0  0  0  0  0  0  0  0  0  0
   -4.0345   -7.1261   13.2921 H   0  0  0  0  0  0  0  0  0  0  0  0
   -4.4389   -9.0384   11.5713 H   0  0  0  0  0  0  0  0  0  0  0  0
   -2.7104   -8.8885   11.1852 H   0  0  0  0  0  0  0  0  0  0  0  0
   -3.0479   -6.4947   10.6225 H   0  0  0  0  0  0  0  0  0  0  0  0
   -4.7733   -6.6442   11.0235 H   0  0  0  0  0  0  0  0  0  0  0  0
   -4.9935   -8.4072    9.2412 H   0  0  0  0  0  0  0  0  0  0  0  0
   -3.2890   -8.1593    8.8098 H   0  0  0  0  0  0  0  0  0  0  0  0
   -2.3988   -2.9755    7.0737 H   0  0  0  0  0  0  0  0  0  0  0  0
   -3.0749   -3.2322    8.7082 H   0  0  0  0  0  0  0  0  0  0  0  0
   -4.0052   -1.1161    6.7131 H   0  0  0  0  0  0  0  0  0  0  0  0
   -2.0623   -0.9395    9.0617 H   0  0  0  0  0  0  0  0  0  0  0  0
   -1.1118    0.5200    7.5600 H   0  0  0  0  0  0  0  0  0  0  0  0
   -3.7203    1.3622    7.9430 H   0  0  0  0  0  0  0  0  0  0  0  0
   -5.6074    0.6725    9.0550 H   0  0  0  0  0  0  0  0  0  0  0  0
   -2.7154   -0.2249   11.3467 H   0  0  0  0  0  0  0  0  0  0  0  0
   -9.1725   -0.7234   11.6975 H   0  0  0  0  0  0  0  0  0  0  0  0
   -7.0114   -1.3185   15.6648 H   0  0  0  0  0  0  0  0  0  0  0  0
   -5.2922   -1.1312   15.2974 H   0  0  0  0  0  0  0  0  0  0  0  0
  1  2  1  0  0  0  0
  1  6  1  0  0  0  0
  1  9  1  0  0  0  0
  1 39  1  6  0  0  0
  2  3  1  0  0  0  0
  2 40  1  0  0  0  0
  3  4  2  0  0  0  0
  3  5  1  0  0  0  0
  5  6  1  0  0  0  0
  5 41  1  0  0  0  0
  6  7  1  0  0  0  0
  6 42  1  6  0  0  0
  7  8  1  0  0  0  0
  7 43  1  0  0  0  0
  7 44  1  0  0  0  0
  8  9  1  0  0  0  0
  9 10  1  0  0  0  0
  9 45  1  6  0  0  0
 10 11  1  0  0  0  0
 10 46  1  0  0  0  0
 10 47  1  0  0  0  0
 11 12  1  0  0  0  0
 11 48  1  0  0  0  0
 11 49  1  0  0  0  0
 12 13  1  0  0  0  0
 12 50  1  0  0  0  0
 12 51  1  0  0  0  0
 13 14  1  0  0  0  0
 13 52  1  0  0  0  0
 13 53  1  0  0  0  0
 14 15  2  0  0  0  0
 14 16  1  0  0  0  0
 16 17  1  0  0  0  0
 17 18  2  0  0  0  0
 17 19  2  0  0  0  0
 17 20  1  0  0  0  0
 20 21  1  0  0  0  0
 21 22  1  0  0  0  0
 21 54  1  0  0  0  0
 21 55  1  0  0  0  0
 22 23  1  0  0  0  0
 22 24  1  0  0  0  0
 22 56  1  6  0  0  0
 23 28  1  0  0  0  0
 24 25  1  0  0  0  0
 24 26  1  0  0  0  0
 24 57  1  1  0  0  0
 25 58  1  0  0  0  0
 26 27  1  0  0  0  0
 26 28  1  0  0  0  0
 26 59  1  6  0  0  0
 28 29  1  0  0  0  0
 28 60  1  6  0  0  0
 29 30  2  0  0  0  0
 29 33  1  0  0  0  0
 30 31  1  0  0  0  0
 30 61  1  0  0  0  0
 31 32  1  0  0  0  0
 32 33  2  0  0  0  0
 32 37  1  0  0  0  0
 33 34  1  0  0  0  0
 34 35  2  0  0  0  0
 35 36  1  0  0  0  0
 35 62  1  0  0  0  0
 36 37  2  0  0  0  0
 37 38  1  0  0  0  0
 38 63  1  0  0  0  0
 38 64  1  0  0  0  0
M  CHG  1  29   1
M  END
$$$$
