5H1
 OpenBabel04111917543D

 17 18  0  0  1  0  0  0  0  0999 V2000
    9.1567   17.1756   23.6431 O   0  0  0  0  0  0  0  0  0  0  0  0
    9.6587   16.8650   22.4096 C   0  0  1  0  0  0  0  0  0  0  0  0
   10.3694   17.7943   21.6598 C   0  0  0  0  0  0  0  0  0  0  0  0
   10.8939   17.4550   20.4039 C   0  0  0  0  0  0  0  0  0  0  0  0
   10.6698   16.1589   19.9452 C   0  0  1  0  0  0  0  0  0  0  0  0
   11.0423   15.5306   18.7743 N   0  3  0  0  0  0  0  0  0  0  0  0
    9.4445   15.5726   21.9591 C   0  0  0  0  0  0  0  0  0  0  0  0
    9.9634   15.2338   20.6965 C   0  0  2  0  0  0  0  0  0  0  0  0
    9.9153   14.0316   19.9579 C   0  0  0  0  0  0  0  0  0  0  0  0
   10.5831   14.2445   18.7858 C   0  0  0  0  0  0  0  0  0  0  0  0
    8.5682   17.9379   23.5072 H   0  0  0  0  0  0  0  0  0  0  0  0
   10.5416   18.7881   22.0471 H   0  0  0  0  0  0  0  0  0  0  0  0
   11.4458   18.1669   19.8151 H   0  0  0  0  0  0  0  0  0  0  0  0
   11.5724   15.9651   18.0294 H   0  0  0  0  0  0  0  0  0  0  0  0
    8.8996   14.8397   22.5175 H   0  0  0  0  0  0  0  0  0  0  0  0
    9.4395   13.1229   20.2689 H   0  0  0  0  0  0  0  0  0  0  0  0
   10.7440   13.5469   17.9839 H   0  0  0  0  0  0  0  0  0  0  0  0
  1 11  1  0  0  0  0
  2  1  1  1  0  0  0
  2  3  1  0  0  0  0
  2  7  1  0  0  0  0
  3  4  1  0  0  0  0
  3 12  1  0  0  0  0
  4 13  1  0  0  0  0
  5  4  1  1  0  0  0
  5  6  1  0  0  0  0
  5  8  1  0  0  0  0
  6 10  1  0  0  0  0
  6 14  1  0  0  0  0
  7 15  1  0  0  0  0
  8  7  1  1  0  0  0
  8  9  1  0  0  0  0
  9 10  1  0  0  0  0
  9 16  1  0  0  0  0
 10 17  1  0  0  0  0
M  CHG  1   6   1
M  END
$$$$
