5KZ
 OpenBabel04111923053D

 69 69  0  0  1  0  0  0  0  0999 V2000
    3.3985    9.5610   81.8585 C   0  0  1  0  0  0  0  0  0  0  0  0
    3.9028   11.0033   81.9379 C   0  0  1  0  0  0  0  0  0  0  0  0
    5.2993   11.2375   81.3412 C   0  0  1  0  0  0  0  0  0  0  0  0
    5.9873   10.0915   80.5629 C   0  0  2  0  0  0  0  0  0  0  0  0
    6.1885    7.6084   80.5463 C   0  0  0  0  0  0  0  0  0  0  0  0
    2.8815   11.9277   81.5071 O   0  0  0  0  0  0  0  0  0  0  0  0
    1.3147   13.6137   82.2332 C   0  0  0  0  0  0  0  0  0  0  0  0
    2.6264   12.8855   82.4471 C   0  0  0  0  0  0  0  0  0  0  0  0
    3.3477   13.1650   83.3820 O   0  0  0  0  0  0  0  0  0  0  0  0
    5.6226   12.6193   80.9862 O   0  0  0  0  0  0  0  0  0  0  0  0
    5.2264   13.2655   79.8535 C   0  0  0  0  0  0  0  0  0  0  0  0
    4.5273   12.7949   78.9596 O   0  0  0  0  0  0  0  0  0  0  0  0
    5.7953   14.6732   79.8003 C   0  0  0  0  0  0  0  0  0  0  0  0
    6.4490   10.3793   79.2207 O   0  0  0  0  0  0  0  0  0  0  0  0
    7.8152   10.4304   79.1215 C   0  0  0  0  0  0  0  0  0  0  0  0
    8.5783   10.3948   80.0860 O   0  0  0  0  0  0  0  0  0  0  0  0
    8.3578   10.4597   77.7284 C   0  0  0  0  0  0  0  0  0  0  0  0
    5.2078    8.7680   80.5740 C   0  0  1  0  0  0  0  0  0  0  0  0
    7.1022    7.7579   81.6393 O   0  0  0  0  0  0  0  0  0  0  0  0
    8.1977    6.9780   81.6911 C   0  0  0  0  0  0  0  0  0  0  0  0
    9.0643    7.1043   82.5076 O   0  0  0  0  0  0  0  0  0  0  0  0
    8.2158    5.8846   80.6443 C   0  0  0  0  0  0  0  0  0  0  0  0
    4.4555    8.6033   81.7586 O   0  0  0  0  0  0  0  0  0  0  0  0
    2.5050    9.3092   83.4552 S   0  0  0  0  0  0  0  0  0  0  0  0
    3.4741    9.4327   84.5243 O   0  0  0  0  0  0  0  0  0  0  0  0
    1.2910   10.1069   83.4520 O   0  0  0  0  0  0  0  0  0  0  0  0
    2.0560    7.6984   83.3330 N   0  0  0  0  0  0  0  0  0  0  0  0
    0.9588    7.4226   82.4161 C   0  0  0  0  0  0  0  0  0  0  0  0
   -0.3401    7.2907   83.1906 C   0  0  0  0  0  0  0  0  0  0  0  0
   -0.2061    6.2615   84.3116 C   0  0  0  0  0  0  0  0  0  0  0  0
   -1.5568    5.6699   84.6870 C   0  0  0  0  0  0  0  0  0  0  0  0
   -1.4364    4.7662   85.8963 C   0  0  0  0  0  0  0  0  0  0  0  0
   -0.9224    3.5124   85.4458 O   0  0  0  0  0  0  0  0  0  0  0  0
   -1.3948    2.2454   86.3336 S   0  0  0  0  0  0  0  0  0  0  0  0
   -2.8387    2.1476   86.1754 O   0  0  0  0  0  0  0  0  0  0  0  0
   -0.7698    2.3607   87.6267 O   0  0  0  0  0  0  0  0  0  0  0  0
   -0.7259    0.9296   85.5684 N   0  0  0  0  0  0  0  0  0  0  0  0
    2.7105    9.4172   81.0140 H   0  0  0  0  0  0  0  0  0  0  0  0
    4.0708   11.1610   83.0080 H   0  0  0  0  0  0  0  0  0  0  0  0
    5.8852   11.1486   82.2825 H   0  0  0  0  0  0  0  0  0  0  0  0
    6.8657    9.8964   81.1877 H   0  0  0  0  0  0  0  0  0  0  0  0
    6.7189    7.6393   79.5907 H   0  0  0  0  0  0  0  0  0  0  0  0
    5.6598    6.6585   80.6833 H   0  0  0  0  0  0  0  0  0  0  0  0
    1.1795   14.3224   83.0669 H   0  0  0  0  0  0  0  0  0  0  0  0
    0.4751   12.9135   82.2755 H   0  0  0  0  0  0  0  0  0  0  0  0
    1.3139   14.1833   81.3052 H   0  0  0  0  0  0  0  0  0  0  0  0
    5.5143   15.1525   78.8702 H   0  0  0  0  0  0  0  0  0  0  0  0
    6.8883   14.6344   79.8361 H   0  0  0  0  0  0  0  0  0  0  0  0
    5.4140   15.2850   80.6219 H   0  0  0  0  0  0  0  0  0  0  0  0
    9.4591   10.4640   77.8040 H   0  0  0  0  0  0  0  0  0  0  0  0
    8.0618   11.3665   77.2050 H   0  0  0  0  0  0  0  0  0  0  0  0
    8.0859    9.5594   77.1720 H   0  0  0  0  0  0  0  0  0  0  0  0
    4.5490    8.6497   79.7072 H   0  0  0  0  0  0  0  0  0  0  0  0
    9.1064    5.2701   80.7674 H   0  0  0  0  0  0  0  0  0  0  0  0
    8.2389    6.3036   79.6280 H   0  0  0  0  0  0  0  0  0  0  0  0
    7.3326    5.2382   80.7573 H   0  0  0  0  0  0  0  0  0  0  0  0
    2.4881    6.9612   83.9040 H   0  0  0  0  0  0  0  0  0  0  0  0
    1.1591    6.5349   81.8102 H   0  0  0  0  0  0  0  0  0  0  0  0
    0.8877    8.2566   81.7098 H   0  0  0  0  0  0  0  0  0  0  0  0
   -1.1420    7.0118   82.4986 H   0  0  0  0  0  0  0  0  0  0  0  0
   -0.6207    8.2624   83.6189 H   0  0  0  0  0  0  0  0  0  0  0  0
    0.2446    6.7428   85.1904 H   0  0  0  0  0  0  0  0  0  0  0  0
    0.4722    5.4583   83.9995 H   0  0  0  0  0  0  0  0  0  0  0  0
   -1.9307    5.0844   83.8377 H   0  0  0  0  0  0  0  0  0  0  0  0
   -2.2675    6.4750   84.8924 H   0  0  0  0  0  0  0  0  0  0  0  0
   -2.4243    4.6568   86.3716 H   0  0  0  0  0  0  0  0  0  0  0  0
   -0.7577    5.1676   86.6554 H   0  0  0  0  0  0  0  0  0  0  0  0
   -0.8664   -0.0161   85.9426 H   0  0  0  0  0  0  0  0  0  0  0  0
   -0.1758    1.0553   84.7309 H   0  0  0  0  0  0  0  0  0  0  0  0
  1  2  1  0  0  0  0
  1 23  1  0  0  0  0
  1 24  1  0  0  0  0
  1 38  1  6  0  0  0
  2  3  1  0  0  0  0
  2  6  1  0  0  0  0
  2 39  1  1  0  0  0
  3  4  1  0  0  0  0
  3 10  1  0  0  0  0
  3 40  1  1  0  0  0
  4 14  1  0  0  0  0
  4 18  1  0  0  0  0
  4 41  1  1  0  0  0
  5 18  1  0  0  0  0
  5 19  1  0  0  0  0
  5 42  1  0  0  0  0
  5 43  1  0  0  0  0
  6  8  1  0  0  0  0
  7  8  1  0  0  0  0
  7 44  1  0  0  0  0
  7 45  1  0  0  0  0
  7 46  1  0  0  0  0
  8  9  2  0  0  0  0
 10 11  1  0  0  0  0
 11 12  2  0  0  0  0
 11 13  1  0  0  0  0
 13 47  1  0  0  0  0
 13 48  1  0  0  0  0
 13 49  1  0  0  0  0
 14 15  1  0  0  0  0
 15 16  2  0  0  0  0
 15 17  1  0  0  0  0
 17 50  1  0  0  0  0
 17 51  1  0  0  0  0
 17 52  1  0  0  0  0
 18 23  1  0  0  0  0
 18 53  1  6  0  0  0
 19 20  1  0  0  0  0
 20 21  2  0  0  0  0
 20 22  1  0  0  0  0
 22 54  1  0  0  0  0
 22 55  1  0  0  0  0
 22 56  1  0  0  0  0
 24 25  2  0  0  0  0
 24 26  2  0  0  0  0
 24 27  1  0  0  0  0
 27 28  1  0  0  0  0
 27 57  1  0  0  0  0
 28 29  1  0  0  0  0
 28 58  1  0  0  0  0
 28 59  1  0  0  0  0
 29 30  1  0  0  0  0
 29 60  1  0  0  0  0
 29 61  1  0  0  0  0
 30 31  1  0  0  0  0
 30 62  1  0  0  0  0
 30 63  1  0  0  0  0
 31 32  1  0  0  0  0
 31 64  1  0  0  0  0
 31 65  1  0  0  0  0
 32 33  1  0  0  0  0
 32 66  1  0  0  0  0
 32 67  1  0  0  0  0
 33 34  1  0  0  0  0
 34 35  2  0  0  0  0
 34 36  2  0  0  0  0
 34 37  1  0  0  0  0
 37 68  1  0  0  0  0
 37 69  1  0  0  0  0
M  END
$$$$
