5L3
 OpenBabel04111923063D

 52 53  0  0  1  0  0  0  0  0999 V2000
   -0.2196    7.8691   82.3068 C   0  0  2  0  0  0  0  0  0  0  0  0
    0.7243    5.6317   81.4252 O   0  0  0  0  0  0  0  0  0  0  0  0
    1.4314    9.0329   83.6874 C   0  0  1  0  0  0  0  0  0  0  0  0
   -0.3085    5.8502   79.2110 C   0  0  0  0  0  0  0  0  0  0  0  0
    0.4536    5.0551   80.2281 C   0  0  0  0  0  0  0  0  0  0  0  0
    0.6955    3.8615   80.0555 O   0  0  0  0  0  0  0  0  0  0  0  0
    0.9491    7.0458   81.6449 C   0  0  2  0  0  0  0  0  0  0  0  0
    2.3582    7.1707   82.3369 C   0  0  2  0  0  0  0  0  0  0  0  0
    3.0607    5.9203   82.3930 O   0  0  0  0  0  0  0  0  0  0  0  0
    2.3703    7.8447   83.7196 C   0  0  1  0  0  0  0  0  0  0  0  0
    3.6877    8.2815   84.0667 O   0  0  0  0  0  0  0  0  0  0  0  0
    1.8435   10.1162   82.6763 C   0  0  0  0  0  0  0  0  0  0  0  0
    0.7786   10.5750   81.8560 O   0  0  0  0  0  0  0  0  0  0  0  0
    0.1141    8.5608   83.5151 O   0  0  0  0  0  0  0  0  0  0  0  0
   -1.8260    7.0524   82.5550 S   0  0  0  0  0  0  0  0  0  0  0  0
   -2.6089    7.8143   83.5112 O   0  0  0  0  0  0  0  0  0  0  0  0
   -2.4216    6.7076   81.2619 O   0  0  0  0  0  0  0  0  0  0  0  0
   -1.2971    5.6588   83.3086 N   0  0  0  0  0  0  0  0  0  0  0  0
   -1.6354    4.3751   82.7020 C   0  0  0  0  0  0  0  0  0  0  0  0
   -0.8763    3.2199   83.3124 C   0  0  0  0  0  0  0  0  0  0  0  0
   -0.9317    5.7701   84.7176 C   0  0  0  0  0  0  0  0  0  0  0  0
   -1.3206    4.5368   85.4689 C   0  0  0  0  0  0  0  0  0  0  0  0
   -0.7858    3.2668   84.8321 C   0  0  1  0  0  0  0  0  0  0  0  0
   -1.6684    2.2303   85.2152 O   0  0  0  0  0  0  0  0  0  0  0  0
   -1.5216    1.3812   86.5664 S   0  0  0  0  0  0  0  0  0  0  0  0
   -0.6142    2.0222   87.4843 O   0  0  0  0  0  0  0  0  0  0  0  0
   -2.8512    0.9725   86.9471 O   0  0  0  0  0  0  0  0  0  0  0  0
   -0.7664    0.0117   85.9736 N   0  0  0  0  0  0  0  0  0  0  0  0
   -0.5302    8.6165   81.5707 H   0  0  0  0  0  0  0  0  0  0  0  0
    1.4494    9.5001   84.6853 H   0  0  0  0  0  0  0  0  0  0  0  0
   -0.4801    5.2241   78.3322 H   0  0  0  0  0  0  0  0  0  0  0  0
    0.2182    6.7478   78.9006 H   0  0  0  0  0  0  0  0  0  0  0  0
   -1.3004    6.0911   79.5718 H   0  0  0  0  0  0  0  0  0  0  0  0
    1.1127    7.4948   80.6576 H   0  0  0  0  0  0  0  0  0  0  0  0
    2.9910    7.7762   81.6783 H   0  0  0  0  0  0  0  0  0  0  0  0
    2.4514    5.2413   82.7318 H   0  0  0  0  0  0  0  0  0  0  0  0
    2.0685    7.1091   84.4768 H   0  0  0  0  0  0  0  0  0  0  0  0
    3.6521    8.6594   84.9648 H   0  0  0  0  0  0  0  0  0  0  0  0
    2.6731    9.8206   82.0318 H   0  0  0  0  0  0  0  0  0  0  0  0
    2.2119   10.9874   83.2388 H   0  0  0  0  0  0  0  0  0  0  0  0
    0.6931    9.9684   81.0988 H   0  0  0  0  0  0  0  0  0  0  0  0
   -1.3972    4.3743   81.6369 H   0  0  0  0  0  0  0  0  0  0  0  0
   -2.7149    4.2242   82.7537 H   0  0  0  0  0  0  0  0  0  0  0  0
    0.1324    3.1425   82.8828 H   0  0  0  0  0  0  0  0  0  0  0  0
   -1.3946    2.3045   82.9885 H   0  0  0  0  0  0  0  0  0  0  0  0
   -1.4610    6.6064   85.1879 H   0  0  0  0  0  0  0  0  0  0  0  0
    0.1392    5.9852   84.8134 H   0  0  0  0  0  0  0  0  0  0  0  0
   -2.4168    4.4885   85.5255 H   0  0  0  0  0  0  0  0  0  0  0  0
   -0.9714    4.6218   86.5021 H   0  0  0  0  0  0  0  0  0  0  0  0
    0.2542    3.0839   85.1397 H   0  0  0  0  0  0  0  0  0  0  0  0
   -0.8551   -0.7513   86.6447 H   0  0  0  0  0  0  0  0  0  0  0  0
   -1.1631   -0.2285   85.0644 H   0  0  0  0  0  0  0  0  0  0  0  0
  1  7  1  0  0  0  0
  1 14  1  0  0  0  0
  1 15  1  0  0  0  0
  1 29  1  6  0  0  0
  2  5  1  0  0  0  0
  2  7  1  0  0  0  0
  3 10  1  0  0  0  0
  3 12  1  0  0  0  0
  3 14  1  0  0  0  0
  3 30  1  1  0  0  0
  4  5  1  0  0  0  0
  4 31  1  0  0  0  0
  4 32  1  0  0  0  0
  4 33  1  0  0  0  0
  5  6  2  0  0  0  0
  7  8  1  0  0  0  0
  7 34  1  6  0  0  0
  8  9  1  0  0  0  0
  8 10  1  0  0  0  0
  8 35  1  6  0  0  0
  9 36  1  0  0  0  0
 10 11  1  0  0  0  0
 10 37  1  1  0  0  0
 11 38  1  0  0  0  0
 12 13  1  0  0  0  0
 12 39  1  0  0  0  0
 12 40  1  0  0  0  0
 13 41  1  0  0  0  0
 15 16  2  0  0  0  0
 15 17  2  0  0  0  0
 15 18  1  0  0  0  0
 18 19  1  0  0  0  0
 18 21  1  0  0  0  0
 19 20  1  0  0  0  0
 19 42  1  0  0  0  0
 19 43  1  0  0  0  0
 20 23  1  0  0  0  0
 20 44  1  0  0  0  0
 20 45  1  0  0  0  0
 21 22  1  0  0  0  0
 21 46  1  0  0  0  0
 21 47  1  0  0  0  0
 22 23  1  0  0  0  0
 22 48  1  0  0  0  0
 22 49  1  0  0  0  0
 23 24  1  0  0  0  0
 23 50  1  1  0  0  0
 24 25  1  0  0  0  0
 25 26  2  0  0  0  0
 25 27  2  0  0  0  0
 25 28  1  0  0  0  0
 28 51  1  0  0  0  0
 28 52  1  0  0  0  0
M  END
$$$$
