5MH
 OpenBabel04111921173D

 15 15  0  0  0  0  0  0  0  0999 V2000
   14.8276    0.0291   17.1232 S   0  0  0  0  0  0  0  0  0  0  0  0
   15.2377    1.2719   16.0643 C   0  0  0  0  0  0  0  0  0  0  0  0
   14.6856    2.6514   16.2549 C   0  0  0  0  0  0  0  0  0  0  0  0
   14.9908    3.6409   15.4398 C   0  0  0  0  0  0  0  0  0  0  0  0
   15.8774    3.4215   14.3264 C   0  0  0  0  0  0  0  0  0  0  0  0
   16.1865    4.5701   13.4425 C   0  0  0  0  0  0  0  0  0  0  0  0
   16.3915    2.1983   14.1245 C   0  0  0  0  0  0  0  0  0  0  0  0
   16.0800    1.1589   14.9680 N   0  0  0  0  0  0  0  0  0  0  0  0
   16.6568   -0.0739   14.6851 O   0  0  0  0  0  0  0  0  0  0  0  0
   14.0131    2.7887   17.1122 H   0  0  0  0  0  0  0  0  0  0  0  0
   14.5752    4.6395   15.5988 H   0  0  0  0  0  0  0  0  0  0  0  0
   16.8669    4.2415   12.6529 H   0  0  0  0  0  0  0  0  0  0  0  0
   16.6681    5.3740   14.0088 H   0  0  0  0  0  0  0  0  0  0  0  0
   15.2730    4.9578   12.9800 H   0  0  0  0  0  0  0  0  0  0  0  0
   17.0633    1.9920   13.2971 H   0  0  0  0  0  0  0  0  0  0  0  0
  1  2  2  0  0  0  0
  2  3  1  0  0  0  0
  2  8  1  0  0  0  0
  3  4  2  0  0  0  0
  3 10  1  0  0  0  0
  4  5  1  0  0  0  0
  4 11  1  0  0  0  0
  5  6  1  0  0  0  0
  5  7  2  0  0  0  0
  6 12  1  0  0  0  0
  6 13  1  0  0  0  0
  6 14  1  0  0  0  0
  7  8  1  0  0  0  0
  7 15  1  0  0  0  0
  8  9  1  0  0  0  0
M  END
$$$$
