5MI
 OpenBabel04111917543D

 19 20  0  0  1  0  0  0  0  0999 V2000
    5.2974    6.8482   -1.0777 C   0  0  1  0  0  0  0  0  0  0  0  0
    4.3968    6.1368   -1.8769 C   0  0  0  0  0  0  0  0  0  0  0  0
    4.6610    4.8263   -2.2945 C   0  0  0  0  0  0  0  0  0  0  0  0
    5.8687    4.2501   -1.8816 C   0  0  1  0  0  0  0  0  0  0  0  0
    6.3968    3.0021   -2.1298 N   0  3  0  0  0  0  0  0  0  0  0  0
    6.5011    6.2430   -0.6786 C   0  0  0  0  0  0  0  0  0  0  0  0
    6.7895    4.9287   -1.0862 C   0  0  2  0  0  0  0  0  0  0  0  0
    7.8863    4.0540   -0.8653 C   0  0  0  0  0  0  0  0  0  0  0  0
    7.6173    2.8764   -1.5224 C   0  0  0  0  0  0  0  0  0  0  0  0
    5.0063    8.2502   -0.6352 C   0  0  0  0  0  0  0  0  0  0  0  0
    3.4642    6.6037   -2.1879 H   0  0  0  0  0  0  0  0  0  0  0  0
    3.9550    4.2855   -2.9138 H   0  0  0  0  0  0  0  0  0  0  0  0
    5.9450    2.2869   -2.6836 H   0  0  0  0  0  0  0  0  0  0  0  0
    7.2122    6.7813   -0.0587 H   0  0  0  0  0  0  0  0  0  0  0  0
    8.7742    4.2731   -0.2876 H   0  0  0  0  0  0  0  0  0  0  0  0
    8.1928    1.9632   -1.6069 H   0  0  0  0  0  0  0  0  0  0  0  0
    4.0407    8.5980   -1.0150 H   0  0  0  0  0  0  0  0  0  0  0  0
    5.7805    8.9296   -1.0063 H   0  0  0  0  0  0  0  0  0  0  0  0
    4.9778    8.3003    0.4581 H   0  0  0  0  0  0  0  0  0  0  0  0
  1  2  1  0  0  0  0
  1  6  1  0  0  0  0
  1 10  1  6  0  0  0
  2  3  1  0  0  0  0
  2 11  1  0  0  0  0
  3 12  1  0  0  0  0
  4  3  1  6  0  0  0
  4  5  1  0  0  0  0
  4  7  1  0  0  0  0
  5  9  1  0  0  0  0
  5 13  1  0  0  0  0
  6 14  1  0  0  0  0
  7  6  1  6  0  0  0
  7  8  1  0  0  0  0
  8  9  1  0  0  0  0
  8 15  1  0  0  0  0
  9 16  1  0  0  0  0
 10 17  1  0  0  0  0
 10 18  1  0  0  0  0
 10 19  1  0  0  0  0
M  CHG  1   5   1
M  END
$$$$
