5NI
 OpenBabel04111920093D

 17 18  0  0  0  0  0  0  0  0999 V2000
    5.4014   11.1041   43.2101 C   0  0  0  0  0  0  0  0  0  0  0  0
    4.7660   12.2039   43.8330 C   0  0  0  0  0  0  0  0  0  0  0  0
    4.1020   13.0717   42.9427 C   0  0  0  0  0  0  0  0  0  0  0  0
    4.1005   12.8053   41.5243 C   0  0  0  0  0  0  0  0  0  0  0  0
    4.7016   11.7401   40.8673 C   0  0  0  0  0  0  0  0  0  0  0  0
    5.3593   10.8979   41.7926 C   0  0  0  0  0  0  0  0  0  0  0  0
    3.4081   14.1972   43.1760 N   0  0  0  0  0  0  0  0  0  0  0  0
    2.9969   14.6127   41.9589 N   0  3  0  0  0  0  0  0  0  0  0  0
    3.3894   13.8069   40.9266 C   0  0  0  0  0  0  0  0  0  0  0  0
    6.0425    9.7304   41.2490 N   0  0  0  0  0  0  0  0  0  0  0  0
    7.2364    9.5865   41.5400 O   0  0  0  0  0  0  0  0  0  0  0  0
    5.3779    8.9768   40.5250 O   0  0  0  0  0  0  0  0  0  0  0  0
    5.9358   10.3856   43.8388 H   0  0  0  0  0  0  0  0  0  0  0  0
    4.7866   12.3681   44.9028 H   0  0  0  0  0  0  0  0  0  0  0  0
    4.6831   11.5657   39.7997 H   0  0  0  0  0  0  0  0  0  0  0  0
    2.4411   15.4693   41.9043 H   0  0  0  0  0  0  0  0  0  0  0  0
    3.1276   14.0255   39.9016 H   0  0  0  0  0  0  0  0  0  0  0  0
  1  2  2  0  0  0  0
  1  6  1  0  0  0  0
  1 13  1  0  0  0  0
  2  3  1  0  0  0  0
  2 14  1  0  0  0  0
  3  4  2  0  0  0  0
  3  7  1  0  0  0  0
  4  5  1  0  0  0  0
  4  9  1  0  0  0  0
  5  6  2  0  0  0  0
  5 15  1  0  0  0  0
  6 10  1  0  0  0  0
  7  8  1  0  0  0  0
  8  9  2  0  0  0  0
  8 16  1  0  0  0  0
  9 17  1  0  0  0  0
 10 11  2  0  0  0  0
 10 12  2  0  0  0  0
M  CHG  1   8   1
M  END
$$$$
