644
 OpenBabel04111920153D

 42 44  0  0  0  0  0  0  0  0999 V2000
  -19.7850   34.3249  -18.4217 O   0  0  0  0  0  0  0  0  0  0  0  0
  -19.7925   35.4720  -17.8969 C   0  0  0  0  0  0  0  0  0  0  0  0
  -20.6959   36.3601  -18.0679 O   0  0  0  0  0  0  0  0  0  0  0  0
  -18.5804   35.8838  -17.0894 C   0  0  0  0  0  0  0  0  0  0  0  0
  -18.2764   37.2686  -17.0423 C   0  0  0  0  0  0  0  0  0  0  0  0
  -17.1919   37.7631  -16.3423 C   0  0  0  0  0  0  0  0  0  0  0  0
  -16.3533   36.8874  -15.6735 C   0  0  0  0  0  0  0  0  0  0  0  0
  -16.6076   35.5156  -15.7452 C   0  0  0  0  0  0  0  0  0  0  0  0
  -17.7262   34.9895  -16.4214 C   0  0  0  0  0  0  0  0  0  0  0  0
  -18.0224   33.6181  -16.3846 N   0  0  0  0  0  0  0  0  0  0  0  0
  -17.7163   32.5862  -15.4735 C   0  0  0  0  0  0  0  0  0  0  0  0
  -17.9855   31.2474  -15.8132 C   0  0  0  0  0  0  0  0  0  0  0  0
  -18.7146   30.9215  -17.0896 C   0  0  0  0  0  0  0  0  0  0  0  0
  -19.8823   31.4033  -17.2215 O   0  0  0  0  0  0  0  0  0  0  0  0
  -18.0814   30.2215  -17.9378 O   0  0  0  0  0  0  0  0  0  0  0  0
  -17.0719   32.8419  -14.2441 C   0  0  0  0  0  0  0  0  0  0  0  0
  -16.6464   31.8348  -13.3921 C   0  0  0  0  0  0  0  0  0  0  0  0
  -16.8997   30.5314  -13.7472 C   0  0  0  0  0  0  0  0  0  0  0  0
  -17.5660   30.2206  -14.9440 C   0  0  0  0  0  0  0  0  0  0  0  0
  -17.8725   28.8681  -15.1801 N   0  0  0  0  0  0  0  0  0  0  0  0
  -18.7483   28.0480  -14.4225 C   0  0  0  0  0  0  0  0  0  0  0  0
  -19.1274   28.3934  -13.1013 C   0  0  0  0  0  0  0  0  0  0  0  0
  -19.8411   27.5121  -12.2891 C   0  0  0  0  0  0  0  0  0  0  0  0
  -20.2287   26.2819  -12.7987 C   0  0  0  0  0  0  0  0  0  0  0  0
  -19.8964   25.9408  -14.1110 C   0  0  0  0  0  0  0  0  0  0  0  0
  -19.1395   26.7963  -14.9338 C   0  0  0  0  0  0  0  0  0  0  0  0
  -18.7935   26.3368  -16.3308 C   0  0  0  0  0  0  0  0  0  0  0  0
  -18.3606   27.1807  -17.1693 O   0  0  0  0  0  0  0  0  0  0  0  0
  -18.9445   25.0907  -16.5677 O   0  0  0  0  0  0  0  0  0  0  0  0
  -18.9341   37.9349  -17.5869 H   0  0  0  0  0  0  0  0  0  0  0  0
  -16.9962   38.8362  -16.3273 H   0  0  0  0  0  0  0  0  0  0  0  0
  -15.5005   37.2359  -15.1097 H   0  0  0  0  0  0  0  0  0  0  0  0
  -15.8864   34.8524  -15.2817 H   0  0  0  0  0  0  0  0  0  0  0  0
  -18.7205   33.3375  -17.1123 H   0  0  0  0  0  0  0  0  0  0  0  0
  -16.8980   33.8515  -13.9099 H   0  0  0  0  0  0  0  0  0  0  0  0
  -16.1285   32.0665  -12.4720 H   0  0  0  0  0  0  0  0  0  0  0  0
  -16.6010   29.7196  -13.0935 H   0  0  0  0  0  0  0  0  0  0  0  0
  -17.9512   28.6545  -16.2024 H   0  0  0  0  0  0  0  0  0  0  0  0
  -18.8652   29.3604  -12.6787 H   0  0  0  0  0  0  0  0  0  0  0  0
  -20.0852   27.7908  -11.2696 H   0  0  0  0  0  0  0  0  0  0  0  0
  -20.7904   25.5831  -12.1908 H   0  0  0  0  0  0  0  0  0  0  0  0
  -20.2135   24.9869  -14.5227 H   0  0  0  0  0  0  0  0  0  0  0  0
  1  2  2  0  0  0  0
  2  3  1  0  0  0  0
  2  4  1  0  0  0  0
  4  5  2  0  0  0  0
  4  9  1  0  0  0  0
  5  6  1  0  0  0  0
  5 30  1  0  0  0  0
  6  7  2  0  0  0  0
  6 31  1  0  0  0  0
  7  8  1  0  0  0  0
  7 32  1  0  0  0  0
  8  9  2  0  0  0  0
  8 33  1  0  0  0  0
  9 10  1  0  0  0  0
 10 11  1  0  0  0  0
 10 34  1  0  0  0  0
 11 12  2  0  0  0  0
 11 16  1  0  0  0  0
 12 13  1  0  0  0  0
 12 19  1  0  0  0  0
 13 14  2  0  0  0  0
 13 15  1  0  0  0  0
 16 17  2  0  0  0  0
 16 35  1  0  0  0  0
 17 18  1  0  0  0  0
 17 36  1  0  0  0  0
 18 19  2  0  0  0  0
 18 37  1  0  0  0  0
 19 20  1  0  0  0  0
 20 21  1  0  0  0  0
 20 38  1  0  0  0  0
 21 22  2  0  0  0  0
 21 26  1  0  0  0  0
 22 23  1  0  0  0  0
 22 39  1  0  0  0  0
 23 24  2  0  0  0  0
 23 40  1  0  0  0  0
 24 25  1  0  0  0  0
 24 41  1  0  0  0  0
 25 26  2  0  0  0  0
 25 42  1  0  0  0  0
 26 27  1  0  0  0  0
 27 28  2  0  0  0  0
 27 29  1  0  0  0  0
M  END
$$$$
