652
 OpenBabel04111921383D

 65 68  0  0  1  0  0  0  0  0999 V2000
  -20.8009   20.0083  -43.7556 C   0  0  0  0  0  0  0  0  0  0  0  0
  -22.2657   19.4860  -42.9122 S   0  0  0  0  0  0  0  0  0  0  0  0
  -22.6481   20.5229  -41.9711 O   0  0  0  0  0  0  0  0  0  0  0  0
  -23.2118   19.0108  -43.9105 O   0  0  0  0  0  0  0  0  0  0  0  0
  -21.7684   18.0695  -41.9591 C   0  0  0  0  0  0  0  0  0  0  0  0
  -21.9801   16.7845  -42.4741 C   0  0  0  0  0  0  0  0  0  0  0  0
  -21.2856   18.2441  -40.6621 C   0  0  0  0  0  0  0  0  0  0  0  0
  -20.9894   17.1238  -39.8879 C   0  0  0  0  0  0  0  0  0  0  0  0
  -21.1858   15.8356  -40.4070 C   0  0  0  0  0  0  0  0  0  0  0  0
  -21.6899   15.6452  -41.7032 C   0  0  0  0  0  0  0  0  0  0  0  0
  -21.9328   14.2934  -42.2385 C   0  0  0  0  0  0  0  0  0  0  0  0
  -20.8951   13.3461  -42.3124 C   0  0  0  0  0  0  0  0  0  0  0  0
  -21.1236   12.0673  -42.8336 C   0  0  0  0  0  0  0  0  0  0  0  0
  -23.2100   13.9228  -42.7062 C   0  0  0  0  0  0  0  0  0  0  0  0
  -23.4545   12.6427  -43.2100 C   0  0  0  0  0  0  0  0  0  0  0  0
  -22.4094   11.7361  -43.2294 C   0  0  0  0  0  0  0  0  0  0  0  0
  -22.6582   10.3930  -43.7164 N   0  3  0  0  0  0  0  0  0  0  0  0
  -22.3648    9.9612  -45.0034 C   0  0  0  0  0  0  0  0  0  0  0  0
  -22.7115    8.6381  -45.0965 C   0  0  1  0  0  0  0  0  0  0  0  0
  -22.6216    7.6870  -46.2475 C   0  0  0  0  0  0  0  0  0  0  0  0
  -23.8809    6.8230  -46.3489 C   0  0  0  0  0  0  0  0  0  0  0  0
  -21.3808    6.8008  -46.1135 C   0  0  0  0  0  0  0  0  0  0  0  0
  -22.5405    8.4485  -47.4517 O   0  0  0  0  0  0  0  0  0  0  0  0
  -23.1850    8.3120  -43.8369 N   0  3  0  0  0  0  0  0  0  0  0  0
  -23.1724    9.3653  -42.9962 C   0  0  2  0  0  0  0  0  0  0  0  0
  -23.6955    9.3264  -41.5371 C   0  0  0  0  0  0  0  0  0  0  0  0
  -25.1262    9.9351  -41.5530 C   0  0  0  0  0  0  0  0  0  0  0  0
  -23.9049    7.8722  -41.0250 C   0  0  0  0  0  0  0  0  0  0  0  0
  -22.7167   10.0211  -40.5673 C   0  0  2  0  0  0  0  0  0  0  0  0
  -23.1713   11.0447  -39.7081 C   0  0  0  0  0  0  0  0  0  0  0  0
  -22.3037   11.7176  -38.8429 C   0  0  0  0  0  0  0  0  0  0  0  0
  -20.9578   11.3832  -38.8029 C   0  0  0  0  0  0  0  0  0  0  0  0
  -20.4766   10.3723  -39.6277 C   0  0  0  0  0  0  0  0  0  0  0  0
  -21.3396    9.6944  -40.4969 C   0  0  2  0  0  0  0  0  0  0  0  0
  -20.5997    8.5040  -41.5157 Cl  0  0  0  0  0  0  0  0  0  0  0  0
  -20.0446   20.2952  -43.0219 H   0  0  0  0  0  0  0  0  0  0  0  0
  -21.0606   20.8732  -44.3717 H   0  0  0  0  0  0  0  0  0  0  0  0
  -20.4430   19.1995  -44.3921 H   0  0  0  0  0  0  0  0  0  0  0  0
  -22.3896   16.6672  -43.4767 H   0  0  0  0  0  0  0  0  0  0  0  0
  -21.1645   19.2399  -40.2393 H   0  0  0  0  0  0  0  0  0  0  0  0
  -20.6253   17.2505  -38.8702 H   0  0  0  0  0  0  0  0  0  0  0  0
  -20.9704   14.9819  -39.7684 H   0  0  0  0  0  0  0  0  0  0  0  0
  -19.8948   13.6064  -41.9660 H   0  0  0  0  0  0  0  0  0  0  0  0
  -20.3099   11.3528  -42.8843 H   0  0  0  0  0  0  0  0  0  0  0  0
  -24.0302   14.6420  -42.6699 H   0  0  0  0  0  0  0  0  0  0  0  0
  -24.4400   12.3834  -43.5790 H   0  0  0  0  0  0  0  0  0  0  0  0
  -21.9546   10.6726  -45.7015 H   0  0  0  0  0  0  0  0  0  0  0  0
  -23.8394    6.1771  -47.2333 H   0  0  0  0  0  0  0  0  0  0  0  0
  -24.7780    7.4443  -46.4591 H   0  0  0  0  0  0  0  0  0  0  0  0
  -24.0179    6.1841  -45.4690 H   0  0  0  0  0  0  0  0  0  0  0  0
  -20.4676    7.4046  -46.0550 H   0  0  0  0  0  0  0  0  0  0  0  0
  -21.2704    6.1507  -46.9885 H   0  0  0  0  0  0  0  0  0  0  0  0
  -21.4268    6.1722  -45.2173 H   0  0  0  0  0  0  0  0  0  0  0  0
  -21.6290    8.7666  -47.5763 H   0  0  0  0  0  0  0  0  0  0  0  0
  -25.7577    9.4141  -42.2829 H   0  0  0  0  0  0  0  0  0  0  0  0
  -25.1190   10.9878  -41.8429 H   0  0  0  0  0  0  0  0  0  0  0  0
  -25.6207    9.8596  -40.5781 H   0  0  0  0  0  0  0  0  0  0  0  0
  -22.9855    7.2818  -41.0291 H   0  0  0  0  0  0  0  0  0  0  0  0
  -24.6221    7.3320  -41.6538 H   0  0  0  0  0  0  0  0  0  0  0  0
  -24.2933    7.8642  -39.9994 H   0  0  0  0  0  0  0  0  0  0  0  0
  -24.2124   11.3614  -39.6858 H   0  0  0  0  0  0  0  0  0  0  0  0
  -22.6874   12.5061  -38.1967 H   0  0  0  0  0  0  0  0  0  0  0  0
  -20.2842   11.9067  -38.1277 H   0  0  0  0  0  0  0  0  0  0  0  0
  -19.4178   10.1224  -39.5927 H   0  0  0  0  0  0  0  0  0  0  0  0
  -23.5080    7.3776  -43.5721 H   0  0  0  0  0  0  0  0  0  0  0  0
  1  2  1  0  0  0  0
  1 36  1  0  0  0  0
  1 37  1  0  0  0  0
  1 38  1  0  0  0  0
  2  3  2  0  0  0  0
  2  4  2  0  0  0  0
  2  5  1  0  0  0  0
  5  6  2  0  0  0  0
  5  7  1  0  0  0  0
  6 10  1  0  0  0  0
  6 39  1  0  0  0  0
  7  8  2  0  0  0  0
  7 40  1  0  0  0  0
  8  9  1  0  0  0  0
  8 41  1  0  0  0  0
  9 10  2  0  0  0  0
  9 42  1  0  0  0  0
 10 11  1  0  0  0  0
 11 12  2  0  0  0  0
 11 14  1  0  0  0  0
 12 13  1  0  0  0  0
 12 43  1  0  0  0  0
 13 16  2  0  0  0  0
 13 44  1  0  0  0  0
 14 15  2  0  0  0  0
 14 45  1  0  0  0  0
 15 16  1  0  0  0  0
 15 46  1  0  0  0  0
 16 17  1  0  0  0  0
 17 18  1  0  0  0  0
 17 25  1  0  0  0  0
 18 19  1  0  0  0  0
 18 47  1  0  0  0  0
 19 20  1  1  0  0  0
 19 24  1  0  0  0  0
 20 21  1  0  0  0  0
 20 22  1  0  0  0  0
 20 23  1  0  0  0  0
 21 48  1  0  0  0  0
 21 49  1  0  0  0  0
 21 50  1  0  0  0  0
 22 51  1  0  0  0  0
 22 52  1  0  0  0  0
 22 53  1  0  0  0  0
 23 54  1  0  0  0  0
 24 25  1  0  0  0  0
 24 65  1  0  0  0  0
 25 26  1  6  0  0  0
 26 27  1  0  0  0  0
 26 28  1  0  0  0  0
 27 55  1  0  0  0  0
 27 56  1  0  0  0  0
 27 57  1  0  0  0  0
 28 58  1  0  0  0  0
 28 59  1  0  0  0  0
 28 60  1  0  0  0  0
 29 26  1  6  0  0  0
 29 30  1  0  0  0  0
 29 34  1  0  0  0  0
 30 31  1  0  0  0  0
 30 61  1  0  0  0  0
 31 32  1  0  0  0  0
 31 62  1  0  0  0  0
 32 33  1  0  0  0  0
 32 63  1  0  0  0  0
 33 34  1  0  0  0  0
 33 64  1  0  0  0  0
 34 35  1  6  0  0  0
M  CHG  2  17   1  24   1
M  END
$$$$
