66T
 OpenBabel04111921493D

 68 71  0  0  1  0  0  0  0  0999 V2000
  -28.8491   -8.8370   15.6216 C   0  0  0  0  0  0  0  0  0  0  0  0
  -25.6833   -6.7722   15.6616 N   0  0  0  0  0  0  0  0  0  0  0  0
  -19.9101   -8.1091   13.4008 O   0  0  0  0  0  0  0  0  0  0  0  0
  -27.8973   -7.6751   15.4705 C   0  0  1  0  0  0  0  0  0  0  0  0
  -28.4380   -6.4861   16.2480 N   0  3  0  0  0  0  0  0  0  0  0  0
  -12.3018   -5.3030    7.8349 O   0  0  0  0  0  0  0  0  0  0  0  0
  -26.4710   -7.9727   15.9704 C   0  0  0  0  0  0  0  0  0  0  0  0
  -19.3965   -6.1043   14.4386 N   0  0  0  0  0  0  0  0  0  0  0  0
  -10.2579   -8.5838   10.8137 O   0  0  0  0  0  0  0  0  0  0  0  0
  -26.1313   -5.5000   16.2370 C   0  0  0  0  0  0  0  0  0  0  0  0
  -16.1589   -5.0523   14.0970 N   0  3  0  0  0  0  0  0  0  0  0  0
  -27.6285   -5.2372   15.9867 C   0  0  2  0  0  0  0  0  0  0  0  0
  -17.4165   -4.8987   14.5671 N   0  0  0  0  0  0  0  0  0  0  0  0
  -28.1298   -4.1131   16.8799 C   0  0  0  0  0  0  0  0  0  0  0  0
  -24.3428   -6.8821   15.3329 C   0  0  0  0  0  0  0  0  0  0  0  0
  -23.3680   -6.0789   15.9419 C   0  0  0  0  0  0  0  0  0  0  0  0
  -22.0268   -6.1356   15.5635 C   0  0  0  0  0  0  0  0  0  0  0  0
  -21.6308   -7.0014   14.5434 C   0  0  0  0  0  0  0  0  0  0  0  0
  -22.5950   -7.7997   13.9198 C   0  0  0  0  0  0  0  0  0  0  0  0
  -23.9317   -7.7429   14.3137 C   0  0  0  0  0  0  0  0  0  0  0  0
  -20.2165   -7.1319   14.0755 C   0  0  0  0  0  0  0  0  0  0  0  0
  -18.0667   -5.9651   14.1136 C   0  0  0  0  0  0  0  0  0  0  0  0
  -17.2535   -6.7972   13.3426 C   0  0  0  0  0  0  0  0  0  0  0  0
  -16.0258   -6.1818   13.3463 C   0  0  0  0  0  0  0  0  0  0  0  0
  -14.7319   -6.5293   12.7299 C   0  0  0  0  0  0  0  0  0  0  0  0
  -14.8952   -7.3082   11.4343 C   0  0  0  0  0  0  0  0  0  0  0  0
  -13.6187   -7.1991   10.6509 C   0  0  0  0  0  0  0  0  0  0  0  0
  -12.4950   -7.9358   11.0449 C   0  0  0  0  0  0  0  0  0  0  0  0
  -11.2882   -7.8071   10.3631 C   0  0  0  0  0  0  0  0  0  0  0  0
  -11.2093   -6.9357    9.2831 C   0  0  0  0  0  0  0  0  0  0  0  0
  -12.3121   -6.1808    8.8865 C   0  0  0  0  0  0  0  0  0  0  0  0
  -13.5154   -6.3084    9.5762 C   0  0  0  0  0  0  0  0  0  0  0  0
  -11.0317   -5.1220    7.2101 C   0  0  0  0  0  0  0  0  0  0  0  0
   -8.9668   -8.2697   10.2960 C   0  0  0  0  0  0  0  0  0  0  0  0
  -28.4709   -9.6943   15.0565 H   0  0  0  0  0  0  0  0  0  0  0  0
  -29.8352   -8.5782   15.2207 H   0  0  0  0  0  0  0  0  0  0  0  0
  -28.9644   -9.1308   16.6682 H   0  0  0  0  0  0  0  0  0  0  0  0
  -27.8599   -7.3630   14.4201 H   0  0  0  0  0  0  0  0  0  0  0  0
  -29.4137   -6.3198   15.9806 H   0  0  0  0  0  0  0  0  0  0  0  0
  -26.4713   -8.1556   17.0561 H   0  0  0  0  0  0  0  0  0  0  0  0
  -26.0978   -8.8843   15.4883 H   0  0  0  0  0  0  0  0  0  0  0  0
  -19.7216   -5.3230   14.9704 H   0  0  0  0  0  0  0  0  0  0  0  0
  -25.5914   -4.6726   15.7608 H   0  0  0  0  0  0  0  0  0  0  0  0
  -25.9207   -5.4986   17.3114 H   0  0  0  0  0  0  0  0  0  0  0  0
  -15.4582   -4.3635   14.3133 H   0  0  0  0  0  0  0  0  0  0  0  0
  -27.8013   -4.9810   14.9363 H   0  0  0  0  0  0  0  0  0  0  0  0
  -27.5465   -3.2045   16.6919 H   0  0  0  0  0  0  0  0  0  0  0  0
  -28.0289   -4.3614   17.9426 H   0  0  0  0  0  0  0  0  0  0  0  0
  -29.1805   -3.8854   16.6792 H   0  0  0  0  0  0  0  0  0  0  0  0
  -23.6387   -5.3965   16.7448 H   0  0  0  0  0  0  0  0  0  0  0  0
  -21.3205   -5.5064   16.0950 H   0  0  0  0  0  0  0  0  0  0  0  0
  -22.3002   -8.4694   13.1148 H   0  0  0  0  0  0  0  0  0  0  0  0
  -24.6508   -8.3558   13.7794 H   0  0  0  0  0  0  0  0  0  0  0  0
  -17.5079   -7.7164   12.8426 H   0  0  0  0  0  0  0  0  0  0  0  0
  -14.1549   -7.1228   13.4480 H   0  0  0  0  0  0  0  0  0  0  0  0
  -14.1807   -5.6009   12.5327 H   0  0  0  0  0  0  0  0  0  0  0  0
  -15.7392   -6.9270   10.8434 H   0  0  0  0  0  0  0  0  0  0  0  0
  -15.1120   -8.3631   11.6516 H   0  0  0  0  0  0  0  0  0  0  0  0
  -12.5607   -8.6090   11.8954 H   0  0  0  0  0  0  0  0  0  0  0  0
  -10.2804   -6.8483    8.7398 H   0  0  0  0  0  0  0  0  0  0  0  0
  -14.3754   -5.7126    9.2774 H   0  0  0  0  0  0  0  0  0  0  0  0
  -11.1473   -4.4092    6.3915 H   0  0  0  0  0  0  0  0  0  0  0  0
  -10.6613   -6.0625    6.7837 H   0  0  0  0  0  0  0  0  0  0  0  0
  -10.3047   -4.7109    7.9215 H   0  0  0  0  0  0  0  0  0  0  0  0
   -8.2481   -8.9654   10.7349 H   0  0  0  0  0  0  0  0  0  0  0  0
   -8.6744   -7.2511   10.5762 H   0  0  0  0  0  0  0  0  0  0  0  0
   -8.9239   -8.3962    9.2081 H   0  0  0  0  0  0  0  0  0  0  0  0
  -28.4120   -6.7052   17.2522 H   0  0  0  0  0  0  0  0  0  0  0  0
  1  4  1  0  0  0  0
  1 35  1  0  0  0  0
  1 36  1  0  0  0  0
  1 37  1  0  0  0  0
  2  7  1  0  0  0  0
  2 10  1  0  0  0  0
  2 15  1  0  0  0  0
  3 21  2  0  0  0  0
  4  5  1  0  0  0  0
  4  7  1  0  0  0  0
  4 38  1  6  0  0  0
  5 12  1  0  0  0  0
  5 39  1  0  0  0  0
  5 68  1  0  0  0  0
  6 31  1  0  0  0  0
  6 33  1  0  0  0  0
  7 40  1  0  0  0  0
  7 41  1  0  0  0  0
  8 21  1  0  0  0  0
  8 22  1  0  0  0  0
  8 42  1  0  0  0  0
  9 29  1  0  0  0  0
  9 34  1  0  0  0  0
 10 12  1  0  0  0  0
 10 43  1  0  0  0  0
 10 44  1  0  0  0  0
 11 13  1  0  0  0  0
 11 24  2  0  0  0  0
 11 45  1  0  0  0  0
 12 14  1  0  0  0  0
 12 46  1  6  0  0  0
 13 22  1  0  0  0  0
 14 47  1  0  0  0  0
 14 48  1  0  0  0  0
 14 49  1  0  0  0  0
 15 16  2  0  0  0  0
 15 20  1  0  0  0  0
 16 17  1  0  0  0  0
 16 50  1  0  0  0  0
 17 18  2  0  0  0  0
 17 51  1  0  0  0  0
 18 19  1  0  0  0  0
 18 21  1  0  0  0  0
 19 20  2  0  0  0  0
 19 52  1  0  0  0  0
 20 53  1  0  0  0  0
 22 23  2  0  0  0  0
 23 24  1  0  0  0  0
 23 54  1  0  0  0  0
 24 25  1  0  0  0  0
 25 26  1  0  0  0  0
 25 55  1  0  0  0  0
 25 56  1  0  0  0  0
 26 27  1  0  0  0  0
 26 57  1  0  0  0  0
 26 58  1  0  0  0  0
 27 28  2  0  0  0  0
 27 32  1  0  0  0  0
 28 29  1  0  0  0  0
 28 59  1  0  0  0  0
 29 30  2  0  0  0  0
 30 31  1  0  0  0  0
 30 60  1  0  0  0  0
 31 32  2  0  0  0  0
 32 61  1  0  0  0  0
 33 62  1  0  0  0  0
 33 63  1  0  0  0  0
 33 64  1  0  0  0  0
 34 65  1  0  0  0  0
 34 66  1  0  0  0  0
 34 67  1  0  0  0  0
M  CHG  2   5   1  11   1
M  END
$$$$
