6K6
 OpenBabel04111920003D

 45 48  0  0  1  0  0  0  0  0999 V2000
    4.2200   -7.6052   44.9198 C   0  0  0  0  0  0  0  0  0  0  0  0
    5.3396   -7.6836   45.7788 C   0  0  0  0  0  0  0  0  0  0  0  0
    6.4498   -7.6442   44.9635 C   0  0  0  0  0  0  0  0  0  0  0  0
    6.0783   -7.5614   43.6599 O   0  0  0  0  0  0  0  0  0  0  0  0
    4.7147   -7.5222   43.6350 C   0  0  0  0  0  0  0  0  0  0  0  0
    4.0506   -7.4238   42.3049 C   0  0  0  0  0  0  0  0  0  0  0  0
    3.8118   -6.0901   41.8135 N   0  0  0  0  0  0  0  0  0  0  0  0
    4.7656   -5.4584   41.0318 C   0  0  0  0  0  0  0  0  0  0  0  0
    5.8261   -6.1442   40.5306 N   0  0  0  0  0  0  0  0  0  0  0  0
    6.6891   -5.4962   39.7220 C   0  0  0  0  0  0  0  0  0  0  0  0
    6.6412   -4.2199   39.2902 N   0  0  0  0  0  0  0  0  0  0  0  0
    5.5691   -3.5864   39.7971 C   0  0  0  0  0  0  0  0  0  0  0  0
    4.6273   -4.1045   40.6673 C   0  0  0  0  0  0  0  0  0  0  0  0
    3.6816   -3.1602   40.9910 N   0  0  0  0  0  0  0  0  0  0  0  0
    4.0082   -2.0957   40.2802 C   0  0  0  0  0  0  0  0  0  0  0  0
    5.1402   -2.3085   39.5322 N   0  3  0  0  0  0  0  0  0  0  0  0
    5.8176   -1.3593   38.6656 C   0  0  2  0  0  0  0  0  0  0  0  0
    5.0476   -0.1582   38.5915 O   0  0  0  0  0  0  0  0  0  0  0  0
    6.0636   -1.8583   37.2382 C   0  0  2  0  0  0  0  0  0  0  0  0
    7.4663   -1.8408   36.8962 O   0  0  0  0  0  0  0  0  0  0  0  0
    5.3063   -0.8911   36.3438 C   0  0  2  0  0  0  0  0  0  0  0  0
    6.0800   -0.5838   35.1762 O   0  0  0  0  0  0  0  0  0  0  0  0
    5.0091    0.3144   37.2357 C   0  0  1  0  0  0  0  0  0  0  0  0
    3.6537    0.9145   36.8596 C   0  0  0  0  0  0  0  0  0  0  0  0
    3.2693    1.9331   37.7575 O   0  0  0  0  0  0  0  0  0  0  0  0
    1.6404    2.1687   37.8258 P   0  0  0  0  0  0  0  0  0  0  0  0
    1.1535    1.0005   38.6691 O   0  0  0  0  0  0  0  0  0  0  0  0
    1.2098    2.1108   36.3659 O   0  0  0  0  0  0  0  0  0  0  0  0
    1.5073    3.5378   38.4755 O   0  0  0  0  0  0  0  0  0  0  0  0
    3.1735   -7.6045   45.1914 H   0  0  0  0  0  0  0  0  0  0  0  0
    5.3419   -7.7508   46.8549 H   0  0  0  0  0  0  0  0  0  0  0  0
    7.5123   -7.6585   45.1445 H   0  0  0  0  0  0  0  0  0  0  0  0
    3.0660   -7.8998   42.4008 H   0  0  0  0  0  0  0  0  0  0  0  0
    4.5824   -8.0422   41.5700 H   0  0  0  0  0  0  0  0  0  0  0  0
    3.2601   -5.4414   42.3682 H   0  0  0  0  0  0  0  0  0  0  0  0
    7.5262   -6.0857   39.3630 H   0  0  0  0  0  0  0  0  0  0  0  0
    3.4650   -1.1519   40.2630 H   0  0  0  0  0  0  0  0  0  0  0  0
    6.7626   -1.1184   39.1680 H   0  0  0  0  0  0  0  0  0  0  0  0
    5.7162   -2.8828   37.0698 H   0  0  0  0  0  0  0  0  0  0  0  0
    7.4801   -2.0518   35.9415 H   0  0  0  0  0  0  0  0  0  0  0  0
    4.3775   -1.3697   36.0135 H   0  0  0  0  0  0  0  0  0  0  0  0
    6.8034   -0.0026   35.4765 H   0  0  0  0  0  0  0  0  0  0  0  0
    5.7820    1.0868   37.1486 H   0  0  0  0  0  0  0  0  0  0  0  0
    2.8928    0.1254   36.8318 H   0  0  0  0  0  0  0  0  0  0  0  0
    3.7280    1.3582   35.8604 H   0  0  0  0  0  0  0  0  0  0  0  0
  1  2  1  0  0  0  0
  1  5  2  0  0  0  0
  1 30  1  0  0  0  0
  2  3  2  0  0  0  0
  2 31  1  0  0  0  0
  3  4  1  0  0  0  0
  3 32  1  0  0  0  0
  4  5  1  0  0  0  0
  5  6  1  0  0  0  0
  6  7  1  0  0  0  0
  6 33  1  0  0  0  0
  6 34  1  0  0  0  0
  7  8  1  0  0  0  0
  7 35  1  0  0  0  0
  8  9  2  0  0  0  0
  8 13  1  0  0  0  0
  9 10  1  0  0  0  0
 10 11  2  0  0  0  0
 10 36  1  0  0  0  0
 11 12  1  0  0  0  0
 12 13  2  0  0  0  0
 12 16  1  0  0  0  0
 13 14  1  0  0  0  0
 14 15  1  0  0  0  0
 15 16  2  0  0  0  0
 15 37  1  0  0  0  0
 16 17  1  0  0  0  0
 17 18  1  0  0  0  0
 17 19  1  0  0  0  0
 17 38  1  1  0  0  0
 18 23  1  0  0  0  0
 19 20  1  0  0  0  0
 19 21  1  0  0  0  0
 19 39  1  6  0  0  0
 20 40  1  0  0  0  0
 21 22  1  0  0  0  0
 21 23  1  0  0  0  0
 21 41  1  6  0  0  0
 22 42  1  0  0  0  0
 23 24  1  0  0  0  0
 23 43  1  6  0  0  0
 24 25  1  0  0  0  0
 24 44  1  0  0  0  0
 24 45  1  0  0  0  0
 25 26  1  0  0  0  0
 26 27  2  0  0  0  0
 26 28  1  0  0  0  0
 26 29  1  0  0  0  0
M  CHG  1  16   1
M  END
$$$$
