6LV
 OpenBabel04111918253D

 43 46  0  0  0  0  0  0  0  0999 V2000
   -2.1705   11.8414   24.1440 N   0  0  0  0  0  0  0  0  0  0  0  0
   -1.1035   11.2167   24.6470 C   0  0  0  0  0  0  0  0  0  0  0  0
    0.0279   11.1918   24.0631 N   0  0  0  0  0  0  0  0  0  0  0  0
    0.7704   10.4427   24.9032 N   0  3  0  0  0  0  0  0  0  0  0  0
    0.0936   10.0438   25.9746 C   0  0  0  0  0  0  0  0  0  0  0  0
   -1.1406   10.5354   25.8287 N   0  3  0  0  0  0  0  0  0  0  0  0
    2.1545   10.0434   24.7444 C   0  0  0  0  0  0  0  0  0  0  0  0
    2.7090    9.2989   25.7215 N   0  0  0  0  0  0  0  0  0  0  0  0
    1.9926    8.9244   26.7941 C   0  0  0  0  0  0  0  0  0  0  0  0
    2.5992    8.1463   27.7725 C   0  0  0  0  0  0  0  0  0  0  0  0
    1.8966    7.7163   28.9032 C   0  0  0  0  0  0  0  0  0  0  0  0
    0.5578    8.0681   29.0559 C   0  0  0  0  0  0  0  0  0  0  0  0
   -0.0800    8.8528   28.0912 C   0  0  0  0  0  0  0  0  0  0  0  0
    0.6431    9.2692   26.9808 C   0  0  0  0  0  0  0  0  0  0  0  0
    2.9420   10.5195   23.5750 C   0  0  0  0  0  0  0  0  0  0  0  0
    3.8778   11.6219   23.9684 C   0  0  0  0  0  0  0  0  0  0  0  0
    3.3860   12.8184   24.5247 C   0  0  0  0  0  0  0  0  0  0  0  0
    4.2541   13.8432   24.9068 C   0  0  0  0  0  0  0  0  0  0  0  0
    3.6622   14.9595   25.4392 O   0  0  0  0  0  0  0  0  0  0  0  0
    4.5129   16.0198   25.8895 C   0  0  0  0  0  0  0  0  0  0  0  0
    5.6247   13.6515   24.7127 C   0  0  0  0  0  0  0  0  0  0  0  0
    6.1314   12.4559   24.1695 C   0  0  0  0  0  0  0  0  0  0  0  0
    5.2570   11.4445   23.8005 C   0  0  0  0  0  0  0  0  0  0  0  0
    7.4936   12.3928   24.0170 O   0  0  0  0  0  0  0  0  0  0  0  0
    8.0926   11.1242   23.7372 C   0  0  0  0  0  0  0  0  0  0  0  0
   -2.1406   12.3427   23.2715 H   0  0  0  0  0  0  0  0  0  0  0  0
   -3.0838   11.8688   24.5910 H   0  0  0  0  0  0  0  0  0  0  0  0
    3.6439    7.8580   27.6617 H   0  0  0  0  0  0  0  0  0  0  0  0
    2.3947    7.1112   29.6579 H   0  0  0  0  0  0  0  0  0  0  0  0
    0.0082    7.7264   29.9337 H   0  0  0  0  0  0  0  0  0  0  0  0
   -1.1172    9.1240   28.2261 H   0  0  0  0  0  0  0  0  0  0  0  0
    2.2678   10.8849   22.7846 H   0  0  0  0  0  0  0  0  0  0  0  0
    3.4744    9.6582   23.1689 H   0  0  0  0  0  0  0  0  0  0  0  0
    2.3147   12.9430   24.6627 H   0  0  0  0  0  0  0  0  0  0  0  0
    3.8817   16.8296   26.2802 H   0  0  0  0  0  0  0  0  0  0  0  0
    5.1081   16.4358   25.0697 H   0  0  0  0  0  0  0  0  0  0  0  0
    5.1639   15.6887   26.7056 H   0  0  0  0  0  0  0  0  0  0  0  0
    6.3204   14.4361   24.9900 H   0  0  0  0  0  0  0  0  0  0  0  0
    5.6248   10.5155   23.3760 H   0  0  0  0  0  0  0  0  0  0  0  0
    9.1746   11.2775   23.6419 H   0  0  0  0  0  0  0  0  0  0  0  0
    7.7415   10.6950   22.7918 H   0  0  0  0  0  0  0  0  0  0  0  0
    7.9285   10.4185   24.5594 H   0  0  0  0  0  0  0  0  0  0  0  0
   -1.9340   10.4380   26.4408 H   0  0  0  0  0  0  0  0  0  0  0  0
  1  2  1  0  0  0  0
  1 26  1  0  0  0  0
  1 27  1  0  0  0  0
  2  3  1  0  0  0  0
  2  6  2  0  0  0  0
  3  4  1  0  0  0  0
  4  5  2  0  0  0  0
  4  7  1  0  0  0  0
  5  6  1  0  0  0  0
  5 14  1  0  0  0  0
  6 43  1  0  0  0  0
  7  8  2  0  0  0  0
  7 15  1  0  0  0  0
  8  9  1  0  0  0  0
  9 10  2  0  0  0  0
  9 14  1  0  0  0  0
 10 11  1  0  0  0  0
 10 28  1  0  0  0  0
 11 12  2  0  0  0  0
 11 29  1  0  0  0  0
 12 13  1  0  0  0  0
 12 30  1  0  0  0  0
 13 14  2  0  0  0  0
 13 31  1  0  0  0  0
 15 16  1  0  0  0  0
 15 32  1  0  0  0  0
 15 33  1  0  0  0  0
 16 17  2  0  0  0  0
 16 23  1  0  0  0  0
 17 18  1  0  0  0  0
 17 34  1  0  0  0  0
 18 19  1  0  0  0  0
 18 21  2  0  0  0  0
 19 20  1  0  0  0  0
 20 35  1  0  0  0  0
 20 36  1  0  0  0  0
 20 37  1  0  0  0  0
 21 22  1  0  0  0  0
 21 38  1  0  0  0  0
 22 23  2  0  0  0  0
 22 24  1  0  0  0  0
 23 39  1  0  0  0  0
 24 25  1  0  0  0  0
 25 40  1  0  0  0  0
 25 41  1  0  0  0  0
 25 42  1  0  0  0  0
M  CHG  2   4   1   6   1
M  END
$$$$
