6MD
 OpenBabel04111921403D

 35 37  0  0  1  0  0  0  0  0999 V2000
   -9.1644  -29.2367   14.5662 O   0  0  0  0  0  0  0  0  0  0  0  0
   -8.6564  -29.0658   13.2483 C   0  0  0  0  0  0  0  0  0  0  0  0
   -9.0932  -30.2219   12.3461 C   0  0  1  0  0  0  0  0  0  0  0  0
  -10.5259  -30.1705   12.2016 O   0  0  0  0  0  0  0  0  0  0  0  0
   -8.4987  -30.0900   10.9502 C   0  0  1  0  0  0  0  0  0  0  0  0
   -7.2263  -30.7038   10.7942 O   0  0  0  0  0  0  0  0  0  0  0  0
   -9.5606  -30.7343   10.0682 C   0  0  1  0  0  0  0  0  0  0  0  0
   -9.3579  -32.1508    9.9848 O   0  0  0  0  0  0  0  0  0  0  0  0
  -10.8665  -30.4051   10.8127 C   0  0  2  0  0  0  0  0  0  0  0  0
  -11.5649  -29.2208   10.3383 N   0  3  0  0  0  0  0  0  0  0  0  0
  -11.0073  -28.1118    9.7559 C   0  0  0  0  0  0  0  0  0  0  0  0
  -11.9060  -27.1917    9.4650 N   0  0  0  0  0  0  0  0  0  0  0  0
  -13.1066  -27.7260    9.8933 C   0  0  0  0  0  0  0  0  0  0  0  0
  -14.4261  -27.2126    9.8792 C   0  0  0  0  0  0  0  0  0  0  0  0
  -14.7319  -25.9719    9.3517 N   0  0  0  0  0  0  0  0  0  0  0  0
  -15.4045  -27.9965   10.3987 N   0  0  0  0  0  0  0  0  0  0  0  0
  -15.0764  -29.2121   10.8824 C   0  0  0  0  0  0  0  0  0  0  0  0
  -13.8573  -29.7987   10.9408 N   0  0  0  0  0  0  0  0  0  0  0  0
  -12.9163  -28.9909   10.4312 C   0  0  0  0  0  0  0  0  0  0  0  0
  -16.0347  -25.3846    9.5298 C   0  0  0  0  0  0  0  0  0  0  0  0
  -10.1342  -29.3151   14.4796 H   0  0  0  0  0  0  0  0  0  0  0  0
   -7.5659  -29.0104   13.3089 H   0  0  0  0  0  0  0  0  0  0  0  0
   -9.0356  -28.1081   12.8736 H   0  0  0  0  0  0  0  0  0  0  0  0
   -8.8338  -31.1784   12.8151 H   0  0  0  0  0  0  0  0  0  0  0  0
   -8.3889  -29.0339   10.6849 H   0  0  0  0  0  0  0  0  0  0  0  0
   -6.6166  -30.3067   11.4436 H   0  0  0  0  0  0  0  0  0  0  0  0
   -9.5358  -30.3612    9.0411 H   0  0  0  0  0  0  0  0  0  0  0  0
   -8.4400  -32.2710    9.6678 H   0  0  0  0  0  0  0  0  0  0  0  0
  -11.5644  -31.2501   10.7657 H   0  0  0  0  0  0  0  0  0  0  0  0
   -9.9517  -28.0044    9.5533 H   0  0  0  0  0  0  0  0  0  0  0  0
  -13.9691  -25.4297    8.9660 H   0  0  0  0  0  0  0  0  0  0  0  0
  -15.9028  -29.8001   11.2757 H   0  0  0  0  0  0  0  0  0  0  0  0
  -16.0521  -24.3831    9.0852 H   0  0  0  0  0  0  0  0  0  0  0  0
  -16.2950  -25.2750   10.5889 H   0  0  0  0  0  0  0  0  0  0  0  0
  -16.8089  -25.9773    9.0313 H   0  0  0  0  0  0  0  0  0  0  0  0
  1  2  1  0  0  0  0
  1 21  1  0  0  0  0
  2  3  1  0  0  0  0
  2 22  1  0  0  0  0
  2 23  1  0  0  0  0
  3  4  1  0  0  0  0
  3  5  1  0  0  0  0
  3 24  1  1  0  0  0
  4  9  1  0  0  0  0
  5  6  1  0  0  0  0
  5  7  1  0  0  0  0
  5 25  1  6  0  0  0
  6 26  1  0  0  0  0
  7  8  1  0  0  0  0
  7  9  1  0  0  0  0
  7 27  1  6  0  0  0
  8 28  1  0  0  0  0
  9 10  1  0  0  0  0
  9 29  1  6  0  0  0
 10 11  2  0  0  0  0
 10 19  1  0  0  0  0
 11 12  1  0  0  0  0
 11 30  1  0  0  0  0
 12 13  1  0  0  0  0
 13 14  2  0  0  0  0
 13 19  1  0  0  0  0
 14 15  1  0  0  0  0
 14 16  1  0  0  0  0
 15 20  1  0  0  0  0
 15 31  1  0  0  0  0
 16 17  2  0  0  0  0
 17 18  1  0  0  0  0
 17 32  1  0  0  0  0
 18 19  2  0  0  0  0
 20 33  1  0  0  0  0
 20 34  1  0  0  0  0
 20 35  1  0  0  0  0
M  CHG  1  10   1
M  END
$$$$
