6XS
 OpenBabel04111920113D

 68 71  0  0  1  0  0  0  0  0999 V2000
   17.0589  -11.6623   12.3704 C   0  0  0  0  0  0  0  0  0  0  0  0
   17.3017  -10.5803   11.4767 C   0  0  0  0  0  0  0  0  0  0  0  0
   16.6066   -9.4592   11.8452 C   0  0  0  0  0  0  0  0  0  0  0  0
   16.5883   -7.9541   11.0214 Cl  0  0  0  0  0  0  0  0  0  0  0  0
   15.7044   -9.6658   13.2540 S   0  0  0  0  0  0  0  0  0  0  0  0
   16.1906  -11.3105   13.3924 C   0  0  0  0  0  0  0  0  0  0  0  0
   15.6891  -12.0916   14.5088 C   0  0  0  0  0  0  0  0  0  0  0  0
   14.9909  -11.6165   15.4154 O   0  0  0  0  0  0  0  0  0  0  0  0
   16.0046  -13.4435   14.5186 N   0  0  0  0  0  0  0  0  0  0  0  0
   15.3940  -14.3534   15.4786 C   0  0  0  0  0  0  0  0  0  0  0  0
   13.9679  -14.7870   15.0822 C   0  0  1  0  0  0  0  0  0  0  0  0
   13.0457  -13.6007   14.7304 C   0  0  0  0  0  0  0  0  0  0  0  0
   12.9211  -13.2254   13.5584 O   0  0  0  0  0  0  0  0  0  0  0  0
   12.3112  -12.9964   15.7299 N   0  0  0  0  0  0  0  0  0  0  0  0
   12.2816  -13.4136   17.1311 C   0  0  0  0  0  0  0  0  0  0  0  0
   10.8492  -13.7679   17.5156 C   0  0  0  0  0  0  0  0  0  0  0  0
    9.9693  -12.5597   17.2687 N   0  3  2  0  0  0  0  0  0  0  0  0
    8.5834  -12.8005   17.7540 C   0  0  0  0  0  0  0  0  0  0  0  0
    9.9849  -12.1792   15.7948 C   0  0  0  0  0  0  0  0  0  0  0  0
   11.4227  -11.8808   15.3690 C   0  0  0  0  0  0  0  0  0  0  0  0
   14.0132  -15.6372   13.8907 N   0  0  0  0  0  0  0  0  0  0  0  0
   13.1014  -16.9949   13.7707 S   0  0  0  0  0  0  0  0  0  0  0  0
   13.4087  -17.5710   12.4696 O   0  0  0  0  0  0  0  0  0  0  0  0
   13.3472  -17.7467   14.9827 O   0  0  0  0  0  0  0  0  0  0  0  0
   11.4073  -16.4809   13.7835 C   0  0  0  0  0  0  0  0  0  0  0  0
   10.7167  -16.0099   12.6576 C   0  0  0  0  0  0  0  0  0  0  0  0
   11.4771  -15.7218   11.1285 Cl  0  0  0  0  0  0  0  0  0  0  0  0
   10.7161  -16.6676   14.9961 C   0  0  0  0  0  0  0  0  0  0  0  0
    9.3589  -16.3739   15.0837 C   0  0  0  0  0  0  0  0  0  0  0  0
    8.7345  -16.4997   16.2614 F   0  0  0  0  0  0  0  0  0  0  0  0
    8.6643  -15.8860   13.9916 C   0  0  0  0  0  0  0  0  0  0  0  0
    9.3384  -15.6998   12.7822 C   0  0  0  0  0  0  0  0  0  0  0  0
    8.5735  -15.1889   11.6973 N   0  0  0  0  0  0  0  0  0  0  0  0
    8.5162  -13.7334   11.5872 C   0  0  0  0  0  0  0  0  0  0  0  0
    7.6968  -13.2211   10.4166 C   0  0  0  0  0  0  0  0  0  0  0  0
    7.8343  -14.1116    9.1967 C   0  0  0  0  0  0  0  0  0  0  0  0
    7.3995  -15.5212    9.5386 C   0  0  0  0  0  0  0  0  0  0  0  0
    8.1344  -16.0878   10.7318 C   0  0  0  0  0  0  0  0  0  0  0  0
    8.2353  -17.3076   10.8706 O   0  0  0  0  0  0  0  0  0  0  0  0
   17.5143  -12.6400   12.2624 H   0  0  0  0  0  0  0  0  0  0  0  0
   17.9468  -10.6320   10.6110 H   0  0  0  0  0  0  0  0  0  0  0  0
   16.5562  -13.8411   13.7712 H   0  0  0  0  0  0  0  0  0  0  0  0
   15.3978  -13.8850   16.4699 H   0  0  0  0  0  0  0  0  0  0  0  0
   16.0406  -15.2398   15.5397 H   0  0  0  0  0  0  0  0  0  0  0  0
   13.5362  -15.3689   15.8932 H   0  0  0  0  0  0  0  0  0  0  0  0
   12.6541  -12.5842   17.7394 H   0  0  0  0  0  0  0  0  0  0  0  0
   12.9199  -14.2716   17.3250 H   0  0  0  0  0  0  0  0  0  0  0  0
   10.7659  -14.0486   18.5688 H   0  0  0  0  0  0  0  0  0  0  0  0
   10.4654  -14.5686   16.8801 H   0  0  0  0  0  0  0  0  0  0  0  0
    8.0079  -11.8900   17.5786 H   0  0  0  0  0  0  0  0  0  0  0  0
    8.6411  -13.0240   18.8212 H   0  0  0  0  0  0  0  0  0  0  0  0
    8.1767  -13.6449   17.1917 H   0  0  0  0  0  0  0  0  0  0  0  0
    9.3324  -11.3103   15.6684 H   0  0  0  0  0  0  0  0  0  0  0  0
    9.5837  -13.0376   15.2439 H   0  0  0  0  0  0  0  0  0  0  0  0
   11.4289  -11.6823   14.2933 H   0  0  0  0  0  0  0  0  0  0  0  0
   11.7883  -10.9837   15.8793 H   0  0  0  0  0  0  0  0  0  0  0  0
   14.6073  -15.3849   13.1035 H   0  0  0  0  0  0  0  0  0  0  0  0
   11.2273  -17.0654   15.8697 H   0  0  0  0  0  0  0  0  0  0  0  0
    7.6006  -15.6773   14.0737 H   0  0  0  0  0  0  0  0  0  0  0  0
    9.5367  -13.3335   11.5291 H   0  0  0  0  0  0  0  0  0  0  0  0
    8.0830  -13.3549   12.5227 H   0  0  0  0  0  0  0  0  0  0  0  0
    8.0110  -12.2013   10.1713 H   0  0  0  0  0  0  0  0  0  0  0  0
    6.6434  -13.1770   10.7150 H   0  0  0  0  0  0  0  0  0  0  0  0
    8.8724  -14.1147    8.8463 H   0  0  0  0  0  0  0  0  0  0  0  0
    7.2094  -13.7227    8.3852 H   0  0  0  0  0  0  0  0  0  0  0  0
    7.5963  -16.1788    8.6842 H   0  0  0  0  0  0  0  0  0  0  0  0
    6.3231  -15.5526    9.7449 H   0  0  0  0  0  0  0  0  0  0  0  0
   10.3714  -11.7690   17.7943 H   0  0  0  0  0  0  0  0  0  0  0  0
  1  2  1  0  0  0  0
  1  6  2  0  0  0  0
  1 40  1  0  0  0  0
  2  3  2  0  0  0  0
  2 41  1  0  0  0  0
  3  4  1  0  0  0  0
  3  5  1  0  0  0  0
  5  6  1  0  0  0  0
  6  7  1  0  0  0  0
  7  8  2  0  0  0  0
  7  9  1  0  0  0  0
  9 10  1  0  0  0  0
  9 42  1  0  0  0  0
 10 11  1  0  0  0  0
 10 43  1  0  0  0  0
 10 44  1  0  0  0  0
 11 12  1  0  0  0  0
 11 21  1  0  0  0  0
 11 45  1  1  0  0  0
 12 13  2  0  0  0  0
 12 14  1  0  0  0  0
 14 15  1  0  0  0  0
 14 20  1  0  0  0  0
 15 16  1  0  0  0  0
 15 46  1  0  0  0  0
 15 47  1  0  0  0  0
 16 17  1  0  0  0  0
 16 48  1  0  0  0  0
 16 49  1  0  0  0  0
 17 18  1  0  0  0  0
 17 19  1  0  0  0  0
 17 68  1  1  0  0  0
 18 50  1  0  0  0  0
 18 51  1  0  0  0  0
 18 52  1  0  0  0  0
 19 20  1  0  0  0  0
 19 53  1  0  0  0  0
 19 54  1  0  0  0  0
 20 55  1  0  0  0  0
 20 56  1  0  0  0  0
 21 22  1  0  0  0  0
 21 57  1  0  0  0  0
 22 23  2  0  0  0  0
 22 24  2  0  0  0  0
 22 25  1  0  0  0  0
 25 26  2  0  0  0  0
 25 28  1  0  0  0  0
 26 27  1  0  0  0  0
 26 32  1  0  0  0  0
 28 29  2  0  0  0  0
 28 58  1  0  0  0  0
 29 30  1  0  0  0  0
 29 31  1  0  0  0  0
 31 32  2  0  0  0  0
 31 59  1  0  0  0  0
 32 33  1  0  0  0  0
 33 34  1  0  0  0  0
 33 38  1  0  0  0  0
 34 35  1  0  0  0  0
 34 60  1  0  0  0  0
 34 61  1  0  0  0  0
 35 36  1  0  0  0  0
 35 62  1  0  0  0  0
 35 63  1  0  0  0  0
 36 37  1  0  0  0  0
 36 64  1  0  0  0  0
 36 65  1  0  0  0  0
 37 38  1  0  0  0  0
 37 66  1  0  0  0  0
 37 67  1  0  0  0  0
 38 39  2  0  0  0  0
M  CHG  1  17   1
M  END
$$$$
