73B
 OpenBabel04111922143D

 53 56  0  0  1  0  0  0  0  0999 V2000
   22.0962    7.8670  -10.7913 C   0  0  0  0  0  0  0  0  0  0  0  0
   21.9142    9.2918  -10.2568 C   0  0  1  0  0  0  0  0  0  0  0  0
   21.8172   10.2869  -11.4183 C   0  0  0  0  0  0  0  0  0  0  0  0
   20.8723   11.4348  -11.0825 C   0  0  1  0  0  0  0  0  0  0  0  0
   20.8022   12.3399  -12.2214 N   0  0  0  0  0  0  0  0  0  0  0  0
   20.3478   13.6417  -12.1314 C   0  0  0  0  0  0  0  0  0  0  0  0
   19.9822   14.2629  -10.9245 C   0  0  0  0  0  0  0  0  0  0  0  0
   19.5513   15.5891  -10.8991 C   0  0  0  0  0  0  0  0  0  0  0  0
   19.4796   16.3083  -12.0874 C   0  0  0  0  0  0  0  0  0  0  0  0
   18.9637   17.9478  -12.0823 Cl  0  0  0  0  0  0  0  0  0  0  0  0
   19.8344   15.7121  -13.2943 C   0  0  0  0  0  0  0  0  0  0  0  0
   20.2613   14.3866  -13.3103 C   0  0  0  0  0  0  0  0  0  0  0  0
   19.5421   10.8084  -10.7304 C   0  0  0  0  0  0  0  0  0  0  0  0
   18.3273   11.2500  -11.2592 C   0  0  0  0  0  0  0  0  0  0  0  0
   17.0960   10.6725  -10.9267 C   0  0  0  0  0  0  0  0  0  0  0  0
   17.1245    9.6162  -10.0132 C   0  0  0  0  0  0  0  0  0  0  0  0
   18.3233    9.1624   -9.4754 C   0  0  0  0  0  0  0  0  0  0  0  0
   19.5326    9.7544   -9.8164 C   0  0  0  0  0  0  0  0  0  0  0  0
   20.7837    9.3214   -9.3177 N   0  0  0  0  0  0  0  0  0  0  0  0
   21.0482    8.9135   -8.0178 C   0  0  0  0  0  0  0  0  0  0  0  0
   20.0083    9.1421   -6.9624 C   0  0  0  0  0  0  0  0  0  0  0  0
   22.1509    8.4647   -7.6965 O   0  0  0  0  0  0  0  0  0  0  0  0
   15.8308   11.1523  -11.5142 C   0  0  0  0  0  0  0  0  0  0  0  0
   15.8014   11.9439  -12.6770 C   0  0  0  0  0  0  0  0  0  0  0  0
   14.6115   12.4318  -13.2009 C   0  0  0  0  0  0  0  0  0  0  0  0
   13.3888   12.1410  -12.6014 C   0  0  0  0  0  0  0  0  0  0  0  0
   13.3868   11.3346  -11.4586 C   0  0  0  0  0  0  0  0  0  0  0  0
   14.5857   10.8461  -10.9327 C   0  0  0  0  0  0  0  0  0  0  0  0
   12.0905   12.6817  -13.1793 C   0  0  0  0  0  0  0  0  0  0  0  0
   11.0205   12.3317  -12.6269 O   0  0  0  0  0  0  0  0  0  0  0  0
   12.1869   13.4479  -14.1847 O   0  0  0  0  0  0  0  0  0  0  0  0
   22.9402    7.8132  -11.4833 H   0  0  0  0  0  0  0  0  0  0  0  0
   21.1929    7.5348  -11.3157 H   0  0  0  0  0  0  0  0  0  0  0  0
   22.2783    7.1590   -9.9761 H   0  0  0  0  0  0  0  0  0  0  0  0
   22.8206    9.5453   -9.6900 H   0  0  0  0  0  0  0  0  0  0  0  0
   21.4647    9.7717  -12.3204 H   0  0  0  0  0  0  0  0  0  0  0  0
   22.8155   10.6744  -11.6447 H   0  0  0  0  0  0  0  0  0  0  0  0
   21.2868   11.9787  -10.2259 H   0  0  0  0  0  0  0  0  0  0  0  0
   20.9420   11.9507  -13.1457 H   0  0  0  0  0  0  0  0  0  0  0  0
   20.0073   13.7135   -9.9879 H   0  0  0  0  0  0  0  0  0  0  0  0
   19.2699   16.0512   -9.9555 H   0  0  0  0  0  0  0  0  0  0  0  0
   19.7799   16.2713  -14.2209 H   0  0  0  0  0  0  0  0  0  0  0  0
   20.5267   13.9265  -14.2580 H   0  0  0  0  0  0  0  0  0  0  0  0
   18.3500   12.0847  -11.9498 H   0  0  0  0  0  0  0  0  0  0  0  0
   16.2070    9.1195   -9.7215 H   0  0  0  0  0  0  0  0  0  0  0  0
   18.2640    8.2881   -8.8291 H   0  0  0  0  0  0  0  0  0  0  0  0
   20.4021    8.7935   -6.0032 H   0  0  0  0  0  0  0  0  0  0  0  0
   19.1177    8.5515   -7.1471 H   0  0  0  0  0  0  0  0  0  0  0  0
   19.7552   10.2042   -6.8819 H   0  0  0  0  0  0  0  0  0  0  0  0
   16.7256   12.1913  -13.2049 H   0  0  0  0  0  0  0  0  0  0  0  0
   14.6251   13.0543  -14.0961 H   0  0  0  0  0  0  0  0  0  0  0  0
   12.4462   11.0867  -10.9669 H   0  0  0  0  0  0  0  0  0  0  0  0
   14.5232   10.2254  -10.0440 H   0  0  0  0  0  0  0  0  0  0  0  0
  1  2  1  0  0  0  0
  1 32  1  0  0  0  0
  1 33  1  0  0  0  0
  1 34  1  0  0  0  0
  2  3  1  0  0  0  0
  2 19  1  0  0  0  0
  2 35  1  1  0  0  0
  3  4  1  0  0  0  0
  3 36  1  0  0  0  0
  3 37  1  0  0  0  0
  4  5  1  0  0  0  0
  4 13  1  0  0  0  0
  4 38  1  1  0  0  0
  5  6  1  0  0  0  0
  5 39  1  0  0  0  0
  6  7  2  0  0  0  0
  6 12  1  0  0  0  0
  7  8  1  0  0  0  0
  7 40  1  0  0  0  0
  8  9  2  0  0  0  0
  8 41  1  0  0  0  0
  9 10  1  0  0  0  0
  9 11  1  0  0  0  0
 11 12  2  0  0  0  0
 11 42  1  0  0  0  0
 12 43  1  0  0  0  0
 13 14  2  0  0  0  0
 13 18  1  0  0  0  0
 14 15  1  0  0  0  0
 14 44  1  0  0  0  0
 15 16  2  0  0  0  0
 15 23  1  0  0  0  0
 16 17  1  0  0  0  0
 16 45  1  0  0  0  0
 17 18  2  0  0  0  0
 17 46  1  0  0  0  0
 18 19  1  0  0  0  0
 19 20  1  0  0  0  0
 20 21  1  0  0  0  0
 20 22  2  0  0  0  0
 21 47  1  0  0  0  0
 21 48  1  0  0  0  0
 21 49  1  0  0  0  0
 23 24  2  0  0  0  0
 23 28  1  0  0  0  0
 24 25  1  0  0  0  0
 24 50  1  0  0  0  0
 25 26  2  0  0  0  0
 25 51  1  0  0  0  0
 26 27  1  0  0  0  0
 26 29  1  0  0  0  0
 27 28  2  0  0  0  0
 27 52  1  0  0  0  0
 28 53  1  0  0  0  0
 29 30  2  0  0  0  0
 29 31  1  0  0  0  0
M  END
$$$$
