7CH
 OpenBabel04111920413D

 34 37  0  0  1  0  0  0  0  0999 V2000
    3.7587   23.2675   15.3722 O   0  0  0  0  0  0  0  0  0  0  0  0
    4.2757   21.8616   15.4848 P   0  0  1  0  0  0  0  0  0  0  0  0
    4.9893   21.3511   16.7105 O   0  0  0  0  0  0  0  0  0  0  0  0
    3.0384   20.8292   15.1684 O   0  0  0  0  0  0  0  0  0  0  0  0
    3.4777   19.4942   15.0936 C   0  0  2  0  0  0  0  0  0  0  0  0
    4.4114   19.3101   13.9183 C   0  0  1  0  0  0  0  0  0  0  0  0
    5.6427   20.1891   14.0475 C   0  0  0  0  0  0  0  0  0  0  0  0
    5.2167   21.5379   14.1911 O   0  0  0  0  0  0  0  0  0  0  0  0
    2.4293   18.4418   14.7756 C   0  0  1  0  0  0  0  0  0  0  0  0
    1.4499   18.9272   13.8436 O   0  0  0  0  0  0  0  0  0  0  0  0
    3.3039   17.3387   14.1226 C   0  0  1  0  0  0  0  0  0  0  0  0
    4.6316   17.8999   13.8761 O   0  0  0  0  0  0  0  0  0  0  0  0
    3.4336   16.1390   14.9349 N   0  3  0  0  0  0  0  0  0  0  0  0
    2.7951   14.9527   14.6634 C   0  0  0  0  0  0  0  0  0  0  0  0
    3.1316   14.0484   15.6620 C   0  0  0  0  0  0  0  0  0  0  0  0
    3.9992   14.7263   16.5622 C   0  0  0  0  0  0  0  0  0  0  0  0
    4.1636   16.0108   16.0948 C   0  0  0  0  0  0  0  0  0  0  0  0
    1.9894   14.7068   13.6146 N   0  0  0  0  0  0  0  0  0  0  0  0
    1.5243   13.4496   13.6283 C   0  0  0  0  0  0  0  0  0  0  0  0
    1.7681   12.4747   14.5341 N   0  0  0  0  0  0  0  0  0  0  0  0
    2.5814   12.7658   15.5675 C   0  0  0  0  0  0  0  0  0  0  0  0
    2.8440   11.7745   16.4907 N   0  0  0  0  0  0  0  0  0  0  0  0
    3.9605   19.2059   16.0357 H   0  0  0  0  0  0  0  0  0  0  0  0
    3.9080   19.6113   12.9906 H   0  0  0  0  0  0  0  0  0  0  0  0
    6.2443   20.1126   13.1351 H   0  0  0  0  0  0  0  0  0  0  0  0
    6.2919   19.8955   14.8782 H   0  0  0  0  0  0  0  0  0  0  0  0
    1.8810   18.1065   15.6616 H   0  0  0  0  0  0  0  0  0  0  0  0
    1.1285   19.7731   14.2150 H   0  0  0  0  0  0  0  0  0  0  0  0
    2.9119   17.0514   13.1423 H   0  0  0  0  0  0  0  0  0  0  0  0
    4.4537   14.3154   17.4518 H   0  0  0  0  0  0  0  0  0  0  0  0
    4.7443   16.8366   16.4870 H   0  0  0  0  0  0  0  0  0  0  0  0
    0.8709   13.1797   12.8036 H   0  0  0  0  0  0  0  0  0  0  0  0
    2.3824   10.8907   16.3669 H   0  0  0  0  0  0  0  0  0  0  0  0
    3.4173   11.9670   17.2940 H   0  0  0  0  0  0  0  0  0  0  0  0
  2  1  2  1  0  0  0
  2  3  1  0  0  0  0
  2  4  1  0  0  0  0
  2  8  1  0  0  0  0
  4  5  1  0  0  0  0
  5  6  1  0  0  0  0
  5  9  1  0  0  0  0
  5 23  1  1  0  0  0
  6  7  1  0  0  0  0
  6 12  1  0  0  0  0
  6 24  1  6  0  0  0
  7  8  1  0  0  0  0
  7 25  1  0  0  0  0
  7 26  1  0  0  0  0
  9 10  1  0  0  0  0
  9 11  1  0  0  0  0
  9 27  1  1  0  0  0
 10 28  1  0  0  0  0
 11 12  1  0  0  0  0
 11 13  1  0  0  0  0
 11 29  1  6  0  0  0
 13 14  2  0  0  0  0
 13 17  1  0  0  0  0
 14 15  1  0  0  0  0
 14 18  1  0  0  0  0
 15 16  1  0  0  0  0
 15 21  2  0  0  0  0
 16 17  2  0  0  0  0
 16 30  1  0  0  0  0
 17 31  1  0  0  0  0
 18 19  1  0  0  0  0
 19 20  2  0  0  0  0
 19 32  1  0  0  0  0
 20 21  1  0  0  0  0
 21 22  1  0  0  0  0
 22 33  1  0  0  0  0
 22 34  1  0  0  0  0
M  CHG  1  13   1
M  END
$$$$
