7P0
 OpenBabel04111918223D

 63 67  0  0  1  0  0  0  0  0999 V2000
   26.2011    9.5484   55.0259 C   0  0  0  0  0  0  0  0  0  0  0  0
   25.3481    9.9265   55.8121 O   0  0  0  0  0  0  0  0  0  0  0  0
   27.1629    8.4726   55.3570 C   0  0  0  0  0  0  0  0  0  0  0  0
   28.3834    8.3674   54.6977 C   0  0  0  0  0  0  0  0  0  0  0  0
   29.2865    7.3580   55.0669 C   0  0  0  0  0  0  0  0  0  0  0  0
   28.9565    6.4684   56.1006 C   0  0  0  0  0  0  0  0  0  0  0  0
   27.7373    6.5677   56.7741 C   0  0  0  0  0  0  0  0  0  0  0  0
   26.8506    7.5859   56.3868 C   0  0  0  0  0  0  0  0  0  0  0  0
   27.3724    5.6352   57.8746 C   0  0  0  0  0  0  0  0  0  0  0  0
   28.3165    4.6982   58.1558 C   0  0  0  0  0  0  0  0  0  0  0  0
   29.6130    4.5675   57.4658 C   0  0  0  0  0  0  0  0  0  0  0  0
   30.4237    3.6952   57.7734 O   0  0  0  0  0  0  0  0  0  0  0  0
   29.8640    5.4686   56.4633 N   0  3  0  0  0  0  0  0  0  0  0  0
   26.2752    5.7167   58.4807 O   0  0  0  0  0  0  0  0  0  0  0  0
   26.3515   10.0999   53.7817 N   0  0  0  0  0  0  0  0  0  0  0  0
   25.6107   11.2693   53.3804 C   0  0  2  0  0  0  0  0  0  0  0  0
   24.8333   10.8648   52.1395 C   0  0  0  0  0  0  0  0  0  0  0  0
   25.2331    9.9973   51.3525 O   0  0  0  0  0  0  0  0  0  0  0  0
   26.5593   12.3994   52.9915 C   0  0  0  0  0  0  0  0  0  0  0  0
   27.5742   12.7259   54.0499 C   0  0  0  0  0  0  0  0  0  0  0  0
   27.1678   13.2300   55.2865 C   0  0  0  0  0  0  0  0  0  0  0  0
   28.9330   12.5163   53.8028 C   0  0  0  0  0  0  0  0  0  0  0  0
   28.1092   13.5304   56.2640 C   0  0  0  0  0  0  0  0  0  0  0  0
   29.8720   12.8105   54.7838 C   0  0  0  0  0  0  0  0  0  0  0  0
   29.4613   13.3189   56.0127 C   0  0  0  0  0  0  0  0  0  0  0  0
   18.6399   11.2236   48.9907 C   0  0  0  0  0  0  0  0  0  0  0  0
   18.8612   11.3953   47.6199 C   0  0  0  0  0  0  0  0  0  0  0  0
   20.0792   11.8937   47.1732 C   0  0  0  0  0  0  0  0  0  0  0  0
   21.0801   12.2150   48.0867 C   0  0  0  0  0  0  0  0  0  0  0  0
   20.8797   12.0425   49.4667 C   0  0  0  0  0  0  0  0  0  0  0  0
   19.6485   11.5348   49.9080 C   0  0  0  0  0  0  0  0  0  0  0  0
   20.3581   12.1295   45.4904 Cl  0  0  0  0  0  0  0  0  0  0  0  0
   19.3836   11.3510   51.2765 N   0  3  0  0  0  0  0  0  0  0  0  0
   19.9087   10.4275   52.1392 C   0  0  0  0  0  0  0  0  0  0  0  0
   19.3674   10.6013   53.3221 N   0  0  0  0  0  0  0  0  0  0  0  0
   18.4964   11.6512   53.1877 N   0  0  0  0  0  0  0  0  0  0  0  0
   18.4887   12.1066   51.9404 N   0  0  0  0  0  0  0  0  0  0  0  0
   21.9765   12.4445   50.4078 C   0  0  0  0  0  0  0  0  0  0  0  0
   22.8596   11.2764   50.7827 C   0  0  0  0  0  0  0  0  0  0  0  0
   23.7156   11.6190   51.8869 N   0  0  0  0  0  0  0  0  0  0  0  0
   28.6709    9.0667   53.9184 H   0  0  0  0  0  0  0  0  0  0  0  0
   30.2392    7.2807   54.5555 H   0  0  0  0  0  0  0  0  0  0  0  0
   25.8964    7.6826   56.9016 H   0  0  0  0  0  0  0  0  0  0  0  0
   28.1074    3.9819   58.9588 H   0  0  0  0  0  0  0  0  0  0  0  0
   30.7459    5.3907   55.9882 H   0  0  0  0  0  0  0  0  0  0  0  0
   26.9360    9.6628   53.0822 H   0  0  0  0  0  0  0  0  0  0  0  0
   24.9244   11.5915   54.1725 H   0  0  0  0  0  0  0  0  0  0  0  0
   25.9877   13.3082   52.7751 H   0  0  0  0  0  0  0  0  0  0  0  0
   27.0897   12.1214   52.0717 H   0  0  0  0  0  0  0  0  0  0  0  0
   26.1130   13.3812   55.4948 H   0  0  0  0  0  0  0  0  0  0  0  0
   29.2598   12.1201   52.8454 H   0  0  0  0  0  0  0  0  0  0  0  0
   27.7846   13.9203   57.2229 H   0  0  0  0  0  0  0  0  0  0  0  0
   30.9262   12.6417   54.5912 H   0  0  0  0  0  0  0  0  0  0  0  0
   30.1951   13.5482   56.7782 H   0  0  0  0  0  0  0  0  0  0  0  0
   17.6927   10.8187   49.3356 H   0  0  0  0  0  0  0  0  0  0  0  0
   18.0808   11.1378   46.9089 H   0  0  0  0  0  0  0  0  0  0  0  0
   22.0266   12.6119   47.7285 H   0  0  0  0  0  0  0  0  0  0  0  0
   20.6196    9.6667   51.8643 H   0  0  0  0  0  0  0  0  0  0  0  0
   21.5406   12.8918   51.3083 H   0  0  0  0  0  0  0  0  0  0  0  0
   22.6011   13.2158   49.9429 H   0  0  0  0  0  0  0  0  0  0  0  0
   23.4694   10.9632   49.9310 H   0  0  0  0  0  0  0  0  0  0  0  0
   22.2697   10.4080   51.0737 H   0  0  0  0  0  0  0  0  0  0  0  0
   23.4446   12.3416   52.5457 H   0  0  0  0  0  0  0  0  0  0  0  0
  1  2  2  0  0  0  0
  1  3  1  0  0  0  0
  1 15  1  0  0  0  0
  3  4  2  0  0  0  0
  3  8  1  0  0  0  0
  4  5  1  0  0  0  0
  4 41  1  0  0  0  0
  5  6  2  0  0  0  0
  5 42  1  0  0  0  0
  6  7  1  0  0  0  0
  6 13  1  0  0  0  0
  7  8  2  0  0  0  0
  7  9  1  0  0  0  0
  8 43  1  0  0  0  0
  9 10  2  0  0  0  0
  9 14  1  0  0  0  0
 10 11  1  0  0  0  0
 10 44  1  0  0  0  0
 11 12  2  0  0  0  0
 11 13  1  0  0  0  0
 13 45  1  0  0  0  0
 15 16  1  0  0  0  0
 15 46  1  0  0  0  0
 16 17  1  0  0  0  0
 16 19  1  0  0  0  0
 16 47  1  1  0  0  0
 17 18  2  0  0  0  0
 17 40  1  0  0  0  0
 19 20  1  0  0  0  0
 19 48  1  0  0  0  0
 19 49  1  0  0  0  0
 20 21  2  0  0  0  0
 20 22  1  0  0  0  0
 21 23  1  0  0  0  0
 21 50  1  0  0  0  0
 22 24  2  0  0  0  0
 22 51  1  0  0  0  0
 23 25  2  0  0  0  0
 23 52  1  0  0  0  0
 24 25  1  0  0  0  0
 24 53  1  0  0  0  0
 25 54  1  0  0  0  0
 26 27  2  0  0  0  0
 26 31  1  0  0  0  0
 26 55  1  0  0  0  0
 27 28  1  0  0  0  0
 27 56  1  0  0  0  0
 28 29  2  0  0  0  0
 28 32  1  0  0  0  0
 29 30  1  0  0  0  0
 29 57  1  0  0  0  0
 30 31  2  0  0  0  0
 30 38  1  0  0  0  0
 31 33  1  0  0  0  0
 33 34  2  0  0  0  0
 33 37  1  0  0  0  0
 34 35  1  0  0  0  0
 34 58  1  0  0  0  0
 35 36  1  0  0  0  0
 36 37  2  0  0  0  0
 38 39  1  0  0  0  0
 38 59  1  0  0  0  0
 38 60  1  0  0  0  0
 39 40  1  0  0  0  0
 39 61  1  0  0  0  0
 39 62  1  0  0  0  0
 40 63  1  0  0  0  0
M  CHG  2  13   1  33   1
M  END
$$$$
