7YG
 OpenBabel04111917393D

 55 57  0  0  0  0  0  0  0  0999 V2000
   11.2090   21.8757   13.3255 C   0  0  0  0  0  0  0  0  0  0  0  0
   12.5218   22.0455   14.0489 N   0  3  0  0  0  0  0  0  0  0  0  0
   12.6747   21.0794   15.1908 C   0  0  0  0  0  0  0  0  0  0  0  0
   13.7585   22.2210   13.1698 C   0  0  0  0  0  0  0  0  0  0  0  0
   13.7951   21.3492   11.9027 C   0  0  0  0  0  0  0  0  0  0  0  0
   13.8729   19.9434   12.2838 N   0  0  0  0  0  0  0  0  0  0  0  0
   13.6997   18.7372   11.1372 S   0  0  0  0  0  0  0  0  0  0  0  0
   13.7095   17.5065   11.8906 O   0  0  0  0  0  0  0  0  0  0  0  0
   12.5953   19.1367   10.2947 O   0  0  0  0  0  0  0  0  0  0  0  0
   15.2042   18.8338   10.2217 C   0  0  0  0  0  0  0  0  0  0  0  0
   15.1846   19.1761    8.8708 C   0  0  0  0  0  0  0  0  0  0  0  0
   16.3827   19.2035    8.1574 C   0  0  0  0  0  0  0  0  0  0  0  0
   17.6076   18.8828    8.7690 C   0  0  0  0  0  0  0  0  0  0  0  0
   17.5917   18.5376   10.1358 C   0  0  0  0  0  0  0  0  0  0  0  0
   16.4022   18.5097   10.8612 C   0  0  0  0  0  0  0  0  0  0  0  0
   18.8667   18.8572    8.0123 C   0  0  0  0  0  0  0  0  0  0  0  0
   19.0743   19.5609    6.8275 C   0  0  0  0  0  0  0  0  0  0  0  0
   20.2180   19.5042    6.1019 N   0  0  0  0  0  0  0  0  0  0  0  0
   21.1942   18.7093    6.5885 C   0  0  0  0  0  0  0  0  0  0  0  0
   20.9964   18.0193    7.7889 C   0  0  0  0  0  0  0  0  0  0  0  0
   19.8447   18.0767    8.5242 N   0  0  0  0  0  0  0  0  0  0  0  0
   22.0682   17.1583    8.3637 C   0  0  0  0  0  0  0  0  0  0  0  0
   23.1799   17.1053    7.8475 O   0  0  0  0  0  0  0  0  0  0  0  0
   21.6545   16.4736    9.4858 N   0  0  0  0  0  0  0  0  0  0  0  0
   22.4582   15.6760   10.3235 C   0  0  0  0  0  0  0  0  0  0  0  0
   21.8371   15.0478   11.3986 C   0  0  0  0  0  0  0  0  0  0  0  0
   22.5985   14.2778   12.2694 C   0  0  0  0  0  0  0  0  0  0  0  0
   23.9605   14.1629   12.0264 C   0  0  0  0  0  0  0  0  0  0  0  0
   24.5872   14.7630   11.0027 N   0  0  0  0  0  0  0  0  0  0  0  0
   23.8272   15.5072   10.1672 C   0  0  0  0  0  0  0  0  0  0  0  0
   22.3230   18.5822    5.8176 N   0  0  0  0  0  0  0  0  0  0  0  0
   10.4216   21.7576   14.0755 H   0  0  0  0  0  0  0  0  0  0  0  0
   11.2428   20.9926   12.6831 H   0  0  0  0  0  0  0  0  0  0  0  0
   11.0335   22.7861   12.7481 H   0  0  0  0  0  0  0  0  0  0  0  0
   13.6567   21.2336   15.6460 H   0  0  0  0  0  0  0  0  0  0  0  0
   12.5569   20.0555   14.8301 H   0  0  0  0  0  0  0  0  0  0  0  0
   11.9020   21.3246   15.9270 H   0  0  0  0  0  0  0  0  0  0  0  0
   14.6297   21.9968   13.7983 H   0  0  0  0  0  0  0  0  0  0  0  0
   13.7960   23.2803   12.9037 H   0  0  0  0  0  0  0  0  0  0  0  0
   14.6603   21.6378   11.2950 H   0  0  0  0  0  0  0  0  0  0  0  0
   12.9017   21.5293   11.2959 H   0  0  0  0  0  0  0  0  0  0  0  0
   14.2919   19.6272   13.1555 H   0  0  0  0  0  0  0  0  0  0  0  0
   14.2520   19.3921    8.3536 H   0  0  0  0  0  0  0  0  0  0  0  0
   16.3329   19.4489    7.0955 H   0  0  0  0  0  0  0  0  0  0  0  0
   18.5195   18.2695   10.6415 H   0  0  0  0  0  0  0  0  0  0  0  0
   16.4208   18.2070   11.9042 H   0  0  0  0  0  0  0  0  0  0  0  0
   18.3139   20.2101    6.4080 H   0  0  0  0  0  0  0  0  0  0  0  0
   20.6741   16.5933    9.7237 H   0  0  0  0  0  0  0  0  0  0  0  0
   20.7720   15.1554   11.5737 H   0  0  0  0  0  0  0  0  0  0  0  0
   22.1508   13.7783   13.1181 H   0  0  0  0  0  0  0  0  0  0  0  0
   24.5966   13.5837   12.6856 H   0  0  0  0  0  0  0  0  0  0  0  0
   24.3884   15.9674    9.3559 H   0  0  0  0  0  0  0  0  0  0  0  0
   23.1082   18.0498    6.1933 H   0  0  0  0  0  0  0  0  0  0  0  0
   22.4094   19.1083    4.9654 H   0  0  0  0  0  0  0  0  0  0  0  0
   12.4290   22.9596   14.5252 H   0  0  0  0  0  0  0  0  0  0  0  0
  1  2  1  0  0  0  0
  1 32  1  0  0  0  0
  1 33  1  0  0  0  0
  1 34  1  0  0  0  0
  2  3  1  0  0  0  0
  2  4  1  0  0  0  0
  2 55  1  0  0  0  0
  3 35  1  0  0  0  0
  3 36  1  0  0  0  0
  3 37  1  0  0  0  0
  4  5  1  0  0  0  0
  4 38  1  0  0  0  0
  4 39  1  0  0  0  0
  5  6  1  0  0  0  0
  5 40  1  0  0  0  0
  5 41  1  0  0  0  0
  6  7  1  0  0  0  0
  6 42  1  0  0  0  0
  7  8  2  0  0  0  0
  7  9  2  0  0  0  0
  7 10  1  0  0  0  0
 10 11  2  0  0  0  0
 10 15  1  0  0  0  0
 11 12  1  0  0  0  0
 11 43  1  0  0  0  0
 12 13  2  0  0  0  0
 12 44  1  0  0  0  0
 13 14  1  0  0  0  0
 13 16  1  0  0  0  0
 14 15  2  0  0  0  0
 14 45  1  0  0  0  0
 15 46  1  0  0  0  0
 16 17  2  0  0  0  0
 16 21  1  0  0  0  0
 17 18  1  0  0  0  0
 17 47  1  0  0  0  0
 18 19  2  0  0  0  0
 19 20  1  0  0  0  0
 19 31  1  0  0  0  0
 20 21  2  0  0  0  0
 20 22  1  0  0  0  0
 22 23  2  0  0  0  0
 22 24  1  0  0  0  0
 24 25  1  0  0  0  0
 24 48  1  0  0  0  0
 25 26  2  0  0  0  0
 25 30  1  0  0  0  0
 26 27  1  0  0  0  0
 26 49  1  0  0  0  0
 27 28  2  0  0  0  0
 27 50  1  0  0  0  0
 28 29  1  0  0  0  0
 28 51  1  0  0  0  0
 29 30  2  0  0  0  0
 30 52  1  0  0  0  0
 31 53  1  0  0  0  0
 31 54  1  0  0  0  0
M  CHG  1   2   1
M  END
$$$$
