88R
 OpenBabel04111917433D

 30 30  0  0  0  0  0  0  0  0999 V2000
   16.3292  -12.2635    6.6753 C   0  0  0  0  0  0  0  0  0  0  0  0
   15.4205  -13.3412    6.5132 O   0  0  0  0  0  0  0  0  0  0  0  0
   14.8717  -13.7497    7.7059 C   0  0  0  0  0  0  0  0  0  0  0  0
   15.6663  -14.3229    8.7063 C   0  0  0  0  0  0  0  0  0  0  0  0
   15.0725  -14.8376    9.8623 C   0  0  0  0  0  0  0  0  0  0  0  0
   13.6832  -14.7985   10.0290 C   0  0  0  0  0  0  0  0  0  0  0  0
   12.8976  -14.2255    9.0185 C   0  0  0  0  0  0  0  0  0  0  0  0
   13.4788  -13.6970    7.8597 C   0  0  0  0  0  0  0  0  0  0  0  0
   12.7666  -13.1426    6.8202 O   0  0  0  0  0  0  0  0  0  0  0  0
   11.4628  -12.6891    7.1500 C   0  0  0  0  0  0  0  0  0  0  0  0
   13.0166  -15.4342   11.2423 C   0  0  0  0  0  0  0  0  0  0  0  0
   12.3435  -16.7733   10.9290 C   0  0  0  0  0  0  0  0  0  0  0  0
   13.3281  -17.8808   10.6073 C   0  0  0  0  0  0  0  0  0  0  0  0
   14.4878  -17.8049   11.1288 O   0  0  0  0  0  0  0  0  0  0  0  0
   12.9692  -18.6695    9.6754 O   0  0  0  0  0  0  0  0  0  0  0  0
   11.4671  -17.1590   12.1073 C   0  0  0  0  0  0  0  0  0  0  0  0
   11.7660  -18.1278   12.8522 O   0  0  0  0  0  0  0  0  0  0  0  0
   10.4551  -16.3882   12.2573 O   0  0  0  0  0  0  0  0  0  0  0  0
   16.6213  -11.9253    5.6743 H   0  0  0  0  0  0  0  0  0  0  0  0
   17.2415  -12.5753    7.1938 H   0  0  0  0  0  0  0  0  0  0  0  0
   15.8620  -11.4153    7.1884 H   0  0  0  0  0  0  0  0  0  0  0  0
   16.7370  -14.4323    8.5736 H   0  0  0  0  0  0  0  0  0  0  0  0
   15.6812  -15.3491   10.6091 H   0  0  0  0  0  0  0  0  0  0  0  0
   11.8218  -14.2695    9.1536 H   0  0  0  0  0  0  0  0  0  0  0  0
   11.0328  -12.2390    6.2495 H   0  0  0  0  0  0  0  0  0  0  0  0
   11.5074  -11.9153    7.9224 H   0  0  0  0  0  0  0  0  0  0  0  0
   10.8014  -13.5087    7.4440 H   0  0  0  0  0  0  0  0  0  0  0  0
   12.2841  -14.7096   11.6185 H   0  0  0  0  0  0  0  0  0  0  0  0
   13.7486  -15.5395   12.0547 H   0  0  0  0  0  0  0  0  0  0  0  0
   11.6729  -16.6527   10.0667 H   0  0  0  0  0  0  0  0  0  0  0  0
  1  2  1  0  0  0  0
  1 19  1  0  0  0  0
  1 20  1  0  0  0  0
  1 21  1  0  0  0  0
  2  3  1  0  0  0  0
  3  4  2  0  0  0  0
  3  8  1  0  0  0  0
  4  5  1  0  0  0  0
  4 22  1  0  0  0  0
  5  6  2  0  0  0  0
  5 23  1  0  0  0  0
  6  7  1  0  0  0  0
  6 11  1  0  0  0  0
  7  8  2  0  0  0  0
  7 24  1  0  0  0  0
  8  9  1  0  0  0  0
  9 10  1  0  0  0  0
 10 25  1  0  0  0  0
 10 26  1  0  0  0  0
 10 27  1  0  0  0  0
 11 12  1  0  0  0  0
 11 28  1  0  0  0  0
 11 29  1  0  0  0  0
 12 13  1  0  0  0  0
 12 16  1  0  0  0  0
 12 30  1  0  0  0  0
 13 14  2  0  0  0  0
 13 15  1  0  0  0  0
 16 17  2  0  0  0  0
 16 18  1  0  0  0  0
M  END
$$$$
