88W
 OpenBabel04111917433D

 39 40  0  0  0  0  0  0  0  0999 V2000
   16.2408  -11.8296    6.4537 C   0  0  0  0  0  0  0  0  0  0  0  0
   21.9669   -5.4328    1.0447 C   0  0  0  0  0  0  0  0  0  0  0  0
   20.6719   -5.3568    1.5755 C   0  0  0  0  0  0  0  0  0  0  0  0
   15.1062  -11.5903    5.4861 C   0  0  0  0  0  0  0  0  0  0  0  0
   19.8241   -6.7786   -0.1934 C   0  0  0  0  0  0  0  0  0  0  0  0
   22.1923   -6.1612   -0.1403 C   0  0  0  0  0  0  0  0  0  0  0  0
   19.6180   -6.0628    0.9882 C   0  0  0  0  0  0  0  0  0  0  0  0
   21.1133   -6.8035   -0.7491 C   0  0  0  0  0  0  0  0  0  0  0  0
   23.2421   -6.9783   -1.9068 C   0  0  0  0  0  0  0  0  0  0  0  0
   17.4449   -7.0726    1.6420 C   0  0  0  0  0  0  0  0  0  0  0  0
   15.0670   -9.6222    4.0221 C   0  0  0  0  0  0  0  0  0  0  0  0
   24.3251   -7.2390   -2.8931 C   0  0  0  0  0  0  0  0  0  0  0  0
   16.2771   -6.7833    2.5714 C   0  0  0  0  0  0  0  0  0  0  0  0
   15.1458   -7.7839    2.3833 C   0  0  0  0  0  0  0  0  0  0  0  0
   23.4053   -6.2881   -0.7992 N   0  0  0  0  0  0  0  0  0  0  0  0
   15.5407  -10.8709    4.3047 N   0  0  0  0  0  0  0  0  0  0  0  0
   18.3537   -6.0228    1.6077 N   0  0  0  0  0  0  0  0  0  0  0  0
   15.5027   -9.1194    2.8385 N   0  0  0  0  0  0  0  0  0  0  0  0
   17.5809   -8.1470    1.0734 O   0  0  0  0  0  0  0  0  0  0  0  0
   14.3077   -8.9971    4.7678 O   0  0  0  0  0  0  0  0  0  0  0  0
   21.6542   -7.5601   -2.1987 S   0  0  0  0  0  0  0  0  0  0  0  0
   15.8754  -12.3806    7.3267 H   0  0  0  0  0  0  0  0  0  0  0  0
   16.6621  -10.8776    6.7907 H   0  0  0  0  0  0  0  0  0  0  0  0
   17.0321  -12.4154    5.9764 H   0  0  0  0  0  0  0  0  0  0  0  0
   22.7964   -4.9253    1.5292 H   0  0  0  0  0  0  0  0  0  0  0  0
   20.5203   -4.7889    2.4892 H   0  0  0  0  0  0  0  0  0  0  0  0
   14.3181  -11.0309    6.0004 H   0  0  0  0  0  0  0  0  0  0  0  0
   14.6966  -12.5526    5.1654 H   0  0  0  0  0  0  0  0  0  0  0  0
   19.0014   -7.2768   -0.6975 H   0  0  0  0  0  0  0  0  0  0  0  0
   25.2718   -6.8063   -2.5502 H   0  0  0  0  0  0  0  0  0  0  0  0
   24.0774   -6.7852   -3.8586 H   0  0  0  0  0  0  0  0  0  0  0  0
   24.4733   -8.3141   -3.0359 H   0  0  0  0  0  0  0  0  0  0  0  0
   15.9039   -5.7769    2.3514 H   0  0  0  0  0  0  0  0  0  0  0  0
   16.6219   -6.8126    3.6144 H   0  0  0  0  0  0  0  0  0  0  0  0
   14.8735   -7.8439    1.3240 H   0  0  0  0  0  0  0  0  0  0  0  0
   14.2695   -7.4330    2.9409 H   0  0  0  0  0  0  0  0  0  0  0  0
   16.2130  -11.2916    3.6810 H   0  0  0  0  0  0  0  0  0  0  0  0
   18.1281   -5.1979    2.1456 H   0  0  0  0  0  0  0  0  0  0  0  0
   16.1279   -9.6610    2.2561 H   0  0  0  0  0  0  0  0  0  0  0  0
  1  4  1  0  0  0  0
  1 22  1  0  0  0  0
  1 23  1  0  0  0  0
  1 24  1  0  0  0  0
  2  3  2  0  0  0  0
  2  6  1  0  0  0  0
  2 25  1  0  0  0  0
  3  7  1  0  0  0  0
  3 26  1  0  0  0  0
  4 16  1  0  0  0  0
  4 27  1  0  0  0  0
  4 28  1  0  0  0  0
  5  7  2  0  0  0  0
  5  8  1  0  0  0  0
  5 29  1  0  0  0  0
  6  8  2  0  0  0  0
  6 15  1  0  0  0  0
  7 17  1  0  0  0  0
  8 21  1  0  0  0  0
  9 12  1  0  0  0  0
  9 15  2  0  0  0  0
  9 21  1  0  0  0  0
 10 13  1  0  0  0  0
 10 17  1  0  0  0  0
 10 19  2  0  0  0  0
 11 16  1  0  0  0  0
 11 18  1  0  0  0  0
 11 20  2  0  0  0  0
 12 30  1  0  0  0  0
 12 31  1  0  0  0  0
 12 32  1  0  0  0  0
 13 14  1  0  0  0  0
 13 33  1  0  0  0  0
 13 34  1  0  0  0  0
 14 18  1  0  0  0  0
 14 35  1  0  0  0  0
 14 36  1  0  0  0  0
 16 37  1  0  0  0  0
 17 38  1  0  0  0  0
 18 39  1  0  0  0  0
M  END
$$$$
