8DQ
 OpenBabel04111918153D

 42 45  0  0  0  0  0  0  0  0999 V2000
   22.1928   49.0256   -0.2381 O   0  0  0  0  0  0  0  0  0  0  0  0
   23.1612   49.6874   -0.5126 C   0  0  0  0  0  0  0  0  0  0  0  0
   24.4883   49.4712    0.1164 C   0  0  0  0  0  0  0  0  0  0  0  0
   24.6639   48.5007    1.0862 C   0  0  0  0  0  0  0  0  0  0  0  0
   25.9195   48.3078    1.6551 C   0  0  0  0  0  0  0  0  0  0  0  0
   27.0040   49.0795    1.2470 C   0  0  0  0  0  0  0  0  0  0  0  0
   25.5732   50.2373   -0.2865 C   0  0  0  0  0  0  0  0  0  0  0  0
   26.8587   50.0552    0.2574 C   0  0  0  0  0  0  0  0  0  0  0  0
   28.0397   50.8144   -0.1908 C   0  0  0  0  0  0  0  0  0  0  0  0
   28.9155   51.3984    0.7313 C   0  0  0  0  0  0  0  0  0  0  0  0
   30.0357   52.1096    0.3071 C   0  0  0  0  0  0  0  0  0  0  0  0
   30.2982   52.2471   -1.0471 C   0  0  0  0  0  0  0  0  0  0  0  0
   29.4496   51.6709   -1.9782 C   0  0  0  0  0  0  0  0  0  0  0  0
   28.3353   50.9547   -1.5512 C   0  0  0  0  0  0  0  0  0  0  0  0
   25.4308   51.1942   -1.2323 O   0  3  0  0  0  0  0  0  0  0  0  0
   24.2293   51.4220   -1.8445 C   0  0  0  0  0  0  0  0  0  0  0  0
   23.1115   50.7597   -1.5331 C   0  0  0  0  0  0  0  0  0  0  0  0
   24.3402   52.3942   -2.8191 N   0  0  0  0  0  0  0  0  0  0  0  0
   25.5908   53.1822   -2.8991 C   0  0  0  0  0  0  0  0  0  0  0  0
   26.2151   53.0848   -4.2771 C   0  0  0  0  0  0  0  0  0  0  0  0
   25.1701   53.3581   -5.3168 N   0  3  0  0  0  0  0  0  0  0  0  0
   24.0092   52.4117   -5.2430 C   0  0  0  0  0  0  0  0  0  0  0  0
   23.3423   52.5090   -3.8834 C   0  0  0  0  0  0  0  0  0  0  0  0
   23.8274   47.8902    1.4087 H   0  0  0  0  0  0  0  0  0  0  0  0
   26.0568   47.5494    2.4211 H   0  0  0  0  0  0  0  0  0  0  0  0
   27.9796   48.9068    1.7013 H   0  0  0  0  0  0  0  0  0  0  0  0
   28.7241   51.3054    1.7976 H   0  0  0  0  0  0  0  0  0  0  0  0
   30.7046   52.5570    1.0366 H   0  0  0  0  0  0  0  0  0  0  0  0
   31.1731   52.8021   -1.3748 H   0  0  0  0  0  0  0  0  0  0  0  0
   29.6616   51.7726   -3.0359 H   0  0  0  0  0  0  0  0  0  0  0  0
   27.6842   50.5016   -2.2929 H   0  0  0  0  0  0  0  0  0  0  0  0
   22.1464   50.9447   -1.9902 H   0  0  0  0  0  0  0  0  0  0  0  0
   26.3424   52.8170   -2.1929 H   0  0  0  0  0  0  0  0  0  0  0  0
   25.4022   54.2317   -2.6451 H   0  0  0  0  0  0  0  0  0  0  0  0
   26.5990   52.0784   -4.4564 H   0  0  0  0  0  0  0  0  0  0  0  0
   27.0072   53.8276   -4.4007 H   0  0  0  0  0  0  0  0  0  0  0  0
   24.8214   54.3158   -5.1880 H   0  0  0  0  0  0  0  0  0  0  0  0
   24.4022   51.4063   -5.4057 H   0  0  0  0  0  0  0  0  0  0  0  0
   23.3095   52.6884   -6.0338 H   0  0  0  0  0  0  0  0  0  0  0  0
   22.7937   53.4515   -3.7929 H   0  0  0  0  0  0  0  0  0  0  0  0
   22.6275   51.6878   -3.8213 H   0  0  0  0  0  0  0  0  0  0  0  0
   25.5966   53.2876   -6.2444 H   0  0  0  0  0  0  0  0  0  0  0  0
  1  2  2  0  0  0  0
  2  3  1  0  0  0  0
  2 17  1  0  0  0  0
  3  4  2  0  0  0  0
  3  7  1  0  0  0  0
  4  5  1  0  0  0  0
  4 24  1  0  0  0  0
  5  6  2  0  0  0  0
  5 25  1  0  0  0  0
  6  8  1  0  0  0  0
  6 26  1  0  0  0  0
  7  8  2  0  0  0  0
  7 15  1  0  0  0  0
  8  9  1  0  0  0  0
  9 10  2  0  0  0  0
  9 14  1  0  0  0  0
 10 11  1  0  0  0  0
 10 27  1  0  0  0  0
 11 12  2  0  0  0  0
 11 28  1  0  0  0  0
 12 13  1  0  0  0  0
 12 29  1  0  0  0  0
 13 14  2  0  0  0  0
 13 30  1  0  0  0  0
 14 31  1  0  0  0  0
 15 16  1  0  0  0  0
 16 17  2  0  0  0  0
 16 18  1  0  0  0  0
 17 32  1  0  0  0  0
 18 19  1  0  0  0  0
 18 23  1  0  0  0  0
 19 20  1  0  0  0  0
 19 33  1  0  0  0  0
 19 34  1  0  0  0  0
 20 21  1  0  0  0  0
 20 35  1  0  0  0  0
 20 36  1  0  0  0  0
 21 22  1  0  0  0  0
 21 37  1  0  0  0  0
 21 42  1  0  0  0  0
 22 23  1  0  0  0  0
 22 38  1  0  0  0  0
 22 39  1  0  0  0  0
 23 40  1  0  0  0  0
 23 41  1  0  0  0  0
M  CHG  2  15   1  21   1
M  END
$$$$
