8PR
 OpenBabel04111920043D

 45 48  0  0  1  0  0  0  0  0999 V2000
  -14.8257  -45.2414   21.3096 F   0  0  0  0  0  0  0  0  0  0  0  0
  -16.9445  -46.2678   21.2775 C   0  0  0  0  0  0  0  0  0  0  0  0
  -16.1032  -45.2262   23.2894 C   0  0  0  0  0  0  0  0  0  0  0  0
  -21.2163  -42.2593   25.9247 C   0  0  0  0  0  0  0  0  0  0  0  0
  -18.1193  -46.6147   21.9444 C   0  0  0  0  0  0  0  0  0  0  0  0
  -17.2819  -45.5645   23.9590 C   0  0  0  0  0  0  0  0  0  0  0  0
  -21.5968  -40.9540   26.2529 C   0  0  0  0  0  0  0  0  0  0  0  0
  -20.9313  -41.6461   23.5863 C   0  0  0  0  0  0  0  0  0  0  0  0
  -21.0294  -48.4340   24.9470 C   0  0  0  0  0  0  0  0  0  0  0  0
  -19.7498  -48.0910   24.2065 C   0  0  0  0  0  0  0  0  0  0  0  0
  -22.1157  -46.3470   24.0212 C   0  0  0  0  0  0  0  0  0  0  0  0
  -21.9317  -38.2909   23.9852 C   0  0  0  0  0  0  0  0  0  0  0  0
  -20.7582  -44.4619   23.1161 C   0  0  0  0  0  0  0  0  0  0  0  0
  -22.2030  -47.8186   24.2638 N   0  3  0  0  0  0  0  0  0  0  0  0
  -20.5879  -43.9222   24.4251 O   0  0  0  0  0  0  0  0  0  0  0  0
  -22.0074  -38.7287   25.3580 O   0  0  0  0  0  0  0  0  0  0  0  0
  -21.4307  -39.3089   23.0895 O   0  0  0  0  0  0  0  0  0  0  0  0
  -15.9513  -45.5785   21.9548 C   0  0  0  0  0  0  0  0  0  0  0  0
  -20.9091  -42.6069   24.5958 C   0  0  0  0  0  0  0  0  0  0  0  0
  -18.3025  -46.2588   23.2906 C   0  0  0  0  0  0  0  0  0  0  0  0
  -21.6456  -40.0333   25.2324 C   0  0  0  0  0  0  0  0  0  0  0  0
  -21.3193  -40.3662   23.9398 C   0  0  0  0  0  0  0  0  0  0  0  0
  -20.8334  -45.9942   23.2676 C   0  0  1  0  0  0  0  0  0  0  0  0
  -19.5996  -46.5737   24.0128 C   0  0  1  0  0  0  0  0  0  0  0  0
  -16.8053  -46.5234   20.2300 H   0  0  0  0  0  0  0  0  0  0  0  0
  -15.3106  -44.6826   23.7955 H   0  0  0  0  0  0  0  0  0  0  0  0
  -21.1645  -43.0103   26.7077 H   0  0  0  0  0  0  0  0  0  0  0  0
  -18.8824  -47.1503   21.3898 H   0  0  0  0  0  0  0  0  0  0  0  0
  -17.3935  -45.2632   24.9992 H   0  0  0  0  0  0  0  0  0  0  0  0
  -21.8427  -40.6785   27.2711 H   0  0  0  0  0  0  0  0  0  0  0  0
  -20.6583  -41.8522   22.5606 H   0  0  0  0  0  0  0  0  0  0  0  0
  -21.0207  -48.0696   25.9790 H   0  0  0  0  0  0  0  0  0  0  0  0
  -21.2013  -49.5151   24.9496 H   0  0  0  0  0  0  0  0  0  0  0  0
  -19.7421  -48.6057   23.2380 H   0  0  0  0  0  0  0  0  0  0  0  0
  -18.8939  -48.4821   24.7719 H   0  0  0  0  0  0  0  0  0  0  0  0
  -22.1920  -45.8567   24.9968 H   0  0  0  0  0  0  0  0  0  0  0  0
  -22.9976  -46.0859   23.4255 H   0  0  0  0  0  0  0  0  0  0  0  0
  -21.2773  -37.4143   23.9276 H   0  0  0  0  0  0  0  0  0  0  0  0
  -22.9373  -38.0043   23.6573 H   0  0  0  0  0  0  0  0  0  0  0  0
  -19.9197  -44.1681   22.4749 H   0  0  0  0  0  0  0  0  0  0  0  0
  -21.6909  -44.1048   22.6598 H   0  0  0  0  0  0  0  0  0  0  0  0
  -22.3832  -48.3087   23.3765 H   0  0  0  0  0  0  0  0  0  0  0  0
  -20.9014  -46.4305   22.2630 H   0  0  0  0  0  0  0  0  0  0  0  0
  -19.5576  -46.1295   25.0158 H   0  0  0  0  0  0  0  0  0  0  0  0
  -23.0370  -47.9935   24.8431 H   0  0  0  0  0  0  0  0  0  0  0  0
  1 18  1  0  0  0  0
  2  5  2  0  0  0  0
  2 18  1  0  0  0  0
  2 25  1  0  0  0  0
  3  6  1  0  0  0  0
  3 18  2  0  0  0  0
  3 26  1  0  0  0  0
  4  7  2  0  0  0  0
  4 19  1  0  0  0  0
  4 27  1  0  0  0  0
  5 20  1  0  0  0  0
  5 28  1  0  0  0  0
  6 20  2  0  0  0  0
  6 29  1  0  0  0  0
  7 21  1  0  0  0  0
  7 30  1  0  0  0  0
  8 19  2  0  0  0  0
  8 22  1  0  0  0  0
  8 31  1  0  0  0  0
  9 10  1  0  0  0  0
  9 14  1  0  0  0  0
  9 32  1  0  0  0  0
  9 33  1  0  0  0  0
 10 24  1  0  0  0  0
 10 34  1  0  0  0  0
 10 35  1  0  0  0  0
 11 14  1  0  0  0  0
 11 23  1  0  0  0  0
 11 36  1  0  0  0  0
 11 37  1  0  0  0  0
 12 16  1  0  0  0  0
 12 17  1  0  0  0  0
 12 38  1  0  0  0  0
 12 39  1  0  0  0  0
 13 15  1  0  0  0  0
 13 23  1  0  0  0  0
 13 40  1  0  0  0  0
 13 41  1  0  0  0  0
 14 42  1  0  0  0  0
 14 45  1  0  0  0  0
 15 19  1  0  0  0  0
 16 21  1  0  0  0  0
 17 22  1  0  0  0  0
 20 24  1  0  0  0  0
 21 22  2  0  0  0  0
 23 24  1  0  0  0  0
 23 43  1  6  0  0  0
 24 44  1  1  0  0  0
M  CHG  1  14   1
M  END
$$$$
