94W
 OpenBabel04111922133D

 20 21  0  0  0  0  0  0  0  0999 V2000
  -23.2530   11.5037   -4.6590 C   0  0  0  0  0  0  0  0  0  0  0  0
  -24.5962   11.7742   -4.6207 O   0  0  0  0  0  0  0  0  0  0  0  0
  -25.3454   10.8830   -3.7952 C   0  0  0  0  0  0  0  0  0  0  0  0
  -22.7445   10.2078   -4.7729 C   0  0  0  0  0  0  0  0  0  0  0  0
  -21.3521   10.0429   -4.8290 C   0  0  0  0  0  0  0  0  0  0  0  0
  -20.4713   11.1227   -4.7915 C   0  0  0  0  0  0  0  0  0  0  0  0
  -21.0052   12.4233   -4.7015 C   0  0  0  0  0  0  0  0  0  0  0  0
  -22.3961   12.6019   -4.6459 C   0  0  0  0  0  0  0  0  0  0  0  0
  -19.1290   10.7884   -4.8539 N   0  0  0  0  0  0  0  0  0  0  0  0
  -18.9943    9.4862   -4.9371 C   0  0  0  0  0  0  0  0  0  0  0  0
  -17.8107    8.8740   -5.0039 N   0  0  0  0  0  0  0  0  0  0  0  0
  -20.4508    8.5893   -4.9544 S   0  0  0  0  0  0  0  0  0  0  0  0
  -26.3962   11.1833   -3.8429 H   0  0  0  0  0  0  0  0  0  0  0  0
  -25.0136   10.9588   -2.7543 H   0  0  0  0  0  0  0  0  0  0  0  0
  -25.2971    9.8463   -4.1403 H   0  0  0  0  0  0  0  0  0  0  0  0
  -23.3855    9.3385   -4.8418 H   0  0  0  0  0  0  0  0  0  0  0  0
  -20.3372   13.2777   -4.6771 H   0  0  0  0  0  0  0  0  0  0  0  0
  -22.8039   13.6065   -4.5815 H   0  0  0  0  0  0  0  0  0  0  0  0
  -16.9613    9.4216   -5.0110 H   0  0  0  0  0  0  0  0  0  0  0  0
  -17.7266    7.8685   -5.0811 H   0  0  0  0  0  0  0  0  0  0  0  0
  1  2  1  0  0  0  0
  1  4  2  0  0  0  0
  1  8  1  0  0  0  0
  2  3  1  0  0  0  0
  3 13  1  0  0  0  0
  3 14  1  0  0  0  0
  3 15  1  0  0  0  0
  4  5  1  0  0  0  0
  4 16  1  0  0  0  0
  5  6  2  0  0  0  0
  5 12  1  0  0  0  0
  6  7  1  0  0  0  0
  6  9  1  0  0  0  0
  7  8  2  0  0  0  0
  7 17  1  0  0  0  0
  8 18  1  0  0  0  0
  9 10  2  0  0  0  0
 10 11  1  0  0  0  0
 10 12  1  0  0  0  0
 11 19  1  0  0  0  0
 11 20  1  0  0  0  0
M  END
$$$$
