9MT
 OpenBabel04111917383D

 44 45  0  0  0  0  0  0  0  0999 V2000
   20.2213   44.0048   62.3961 N   0  0  0  0  0  0  0  0  0  0  0  0
   21.2285   44.4022   62.7145 C   0  0  0  0  0  0  0  0  0  0  0  0
   22.5720   44.8929   63.1263 C   0  0  0  0  0  0  0  0  0  0  0  0
   23.3900   45.2305   61.8998 C   0  0  0  0  0  0  0  0  0  0  0  0
   22.8016   46.6934   60.9842 S   0  0  0  0  0  0  0  0  0  0  0  0
   22.6801   47.9282   62.3226 C   0  0  0  0  0  0  0  0  0  0  0  0
   23.8144   48.3104   63.0237 C   0  0  0  0  0  0  0  0  0  0  0  0
   25.0772   47.8238   62.6673 C   0  0  0  0  0  0  0  0  0  0  0  0
   26.1759   48.2210   63.3880 C   0  0  0  0  0  0  0  0  0  0  0  0
   27.4366   47.7590   63.0893 O   0  0  0  0  0  0  0  0  0  0  0  0
   27.6001   47.0733   61.8295 C   0  0  0  0  0  0  0  0  0  0  0  0
   25.9947   49.0893   64.4774 C   0  0  0  0  0  0  0  0  0  0  0  0
   24.7413   49.6230   64.8144 C   0  0  0  0  0  0  0  0  0  0  0  0
   23.6370   49.2050   64.0994 C   0  0  0  0  0  0  0  0  0  0  0  0
   22.4377   49.6805   64.4637 N   0  0  0  0  0  0  0  0  0  0  0  0
   21.3276   49.3452   63.7643 C   0  0  0  0  0  0  0  0  0  0  0  0
   20.0817   50.0061   64.2968 C   0  0  0  0  0  0  0  0  0  0  0  0
   21.4085   48.4478   62.6850 C   0  0  0  0  0  0  0  0  0  0  0  0
   20.2875   48.0035   61.7916 C   0  0  0  0  0  0  0  0  0  0  0  0
   18.9043   47.7874   62.3118 C   0  0  0  0  0  0  0  0  0  0  0  0
   17.8538   48.0384   61.2497 C   0  0  0  0  0  0  0  0  0  0  0  0
   17.1478   49.3683   61.4604 C   0  0  0  0  0  0  0  0  0  0  0  0
   23.0838   44.1035   63.6900 H   0  0  0  0  0  0  0  0  0  0  0  0
   22.4714   45.7621   63.7814 H   0  0  0  0  0  0  0  0  0  0  0  0
   23.3629   44.4057   61.1835 H   0  0  0  0  0  0  0  0  0  0  0  0
   24.4274   45.4030   62.1794 H   0  0  0  0  0  0  0  0  0  0  0  0
   25.1977   47.1342   61.8453 H   0  0  0  0  0  0  0  0  0  0  0  0
   28.6434   46.7432   61.7219 H   0  0  0  0  0  0  0  0  0  0  0  0
   27.3627   47.7425   60.9907 H   0  0  0  0  0  0  0  0  0  0  0  0
   26.9639   46.1783   61.7766 H   0  0  0  0  0  0  0  0  0  0  0  0
   26.8448   49.3556   65.0973 H   0  0  0  0  0  0  0  0  0  0  0  0
   24.6368   50.3582   65.6173 H   0  0  0  0  0  0  0  0  0  0  0  0
   19.2053   49.8013   63.7119 H   0  0  0  0  0  0  0  0  0  0  0  0
   20.1396   51.0947   64.2555 H   0  0  0  0  0  0  0  0  0  0  0  0
   19.8644   49.6940   65.3255 H   0  0  0  0  0  0  0  0  0  0  0  0
   20.5416   47.0177   61.3907 H   0  0  0  0  0  0  0  0  0  0  0  0
   20.2463   48.7122   60.9645 H   0  0  0  0  0  0  0  0  0  0  0  0
   18.6971   48.4333   63.1279 H   0  0  0  0  0  0  0  0  0  0  0  0
   18.8065   46.7836   62.7131 H   0  0  0  0  0  0  0  0  0  0  0  0
   17.1145   47.2361   61.2936 H   0  0  0  0  0  0  0  0  0  0  0  0
   18.3192   48.0397   60.2580 H   0  0  0  0  0  0  0  0  0  0  0  0
   16.3901   49.5140   60.6843 H   0  0  0  0  0  0  0  0  0  0  0  0
   17.8708   50.1907   61.4134 H   0  0  0  0  0  0  0  0  0  0  0  0
   16.6585   49.3814   62.4420 H   0  0  0  0  0  0  0  0  0  0  0  0
  1  2  3  0  0  0  0
  2  3  1  0  0  0  0
  3  4  1  0  0  0  0
  3 23  1  0  0  0  0
  3 24  1  0  0  0  0
  4  5  1  0  0  0  0
  4 25  1  0  0  0  0
  4 26  1  0  0  0  0
  5  6  1  0  0  0  0
  6  7  2  0  0  0  0
  6 18  1  0  0  0  0
  7  8  1  0  0  0  0
  7 14  1  0  0  0  0
  8  9  2  0  0  0  0
  8 27  1  0  0  0  0
  9 10  1  0  0  0  0
  9 12  1  0  0  0  0
 10 11  1  0  0  0  0
 11 28  1  0  0  0  0
 11 29  1  0  0  0  0
 11 30  1  0  0  0  0
 12 13  2  0  0  0  0
 12 31  1  0  0  0  0
 13 14  1  0  0  0  0
 13 32  1  0  0  0  0
 14 15  2  0  0  0  0
 15 16  1  0  0  0  0
 16 17  1  0  0  0  0
 16 18  2  0  0  0  0
 17 33  1  0  0  0  0
 17 34  1  0  0  0  0
 17 35  1  0  0  0  0
 18 19  1  0  0  0  0
 19 20  1  0  0  0  0
 19 36  1  0  0  0  0
 19 37  1  0  0  0  0
 20 21  1  0  0  0  0
 20 38  1  0  0  0  0
 20 39  1  0  0  0  0
 21 22  1  0  0  0  0
 21 40  1  0  0  0  0
 21 41  1  0  0  0  0
 22 42  1  0  0  0  0
 22 43  1  0  0  0  0
 22 44  1  0  0  0  0
M  END
$$$$
