9RA
 OpenBabel04111919463D

 53 55  0  0  0  0  0  0  0  0999 V2000
   -9.6438   18.9792   -2.3907 O   0  0  0  0  0  0  0  0  0  0  0  0
   -8.7865   19.6836   -3.0145 C   0  0  0  0  0  0  0  0  0  0  0  0
   -9.0403   20.5746   -3.8869 O   0  0  0  0  0  0  0  0  0  0  0  0
   -7.3401   19.4286   -2.6959 C   0  0  0  0  0  0  0  0  0  0  0  0
   -6.3464   19.7320   -3.6321 C   0  0  0  0  0  0  0  0  0  0  0  0
   -6.9904   18.8540   -1.4757 C   0  0  0  0  0  0  0  0  0  0  0  0
   -5.6606   18.5413   -1.2070 C   0  0  0  0  0  0  0  0  0  0  0  0
   -4.6766   18.7702   -2.1594 C   0  0  0  0  0  0  0  0  0  0  0  0
   -5.0226   19.4041   -3.3698 C   0  0  0  0  0  0  0  0  0  0  0  0
   -3.2728   18.3753   -1.9180 C   0  0  0  0  0  0  0  0  0  0  0  0
   -2.9139   17.5652   -0.8851 C   0  0  0  0  0  0  0  0  0  0  0  0
   -2.1718   18.8478   -2.7393 C   0  0  0  0  0  0  0  0  0  0  0  0
   -1.4684   19.9986   -2.3795 C   0  0  0  0  0  0  0  0  0  0  0  0
   -1.8257   20.7942   -1.1596 C   0  0  0  0  0  0  0  0  0  0  0  0
   -0.4433   20.4155   -3.2165 C   0  0  0  0  0  0  0  0  0  0  0  0
   -1.8911   18.1792   -3.9185 C   0  0  0  0  0  0  0  0  0  0  0  0
   -0.8648   18.5946   -4.7754 C   0  0  0  0  0  0  0  0  0  0  0  0
   -0.6054   17.8027   -6.0540 C   0  0  0  0  0  0  0  0  0  0  0  0
   -0.5318   16.2978   -5.7242 C   0  0  0  0  0  0  0  0  0  0  0  0
   -1.7528   18.0477   -7.0512 C   0  0  0  0  0  0  0  0  0  0  0  0
    0.7193   18.2135   -6.7247 C   0  0  0  0  0  0  0  0  0  0  0  0
    0.8761   19.7318   -6.7209 C   0  0  0  0  0  0  0  0  0  0  0  0
    1.0180   20.2503   -5.2763 C   0  0  0  0  0  0  0  0  0  0  0  0
   -0.1306   19.7408   -4.4156 C   0  0  0  0  0  0  0  0  0  0  0  0
    1.0458   21.7892   -5.3199 C   0  0  0  0  0  0  0  0  0  0  0  0
    2.3400   19.7507   -4.6664 C   0  0  0  0  0  0  0  0  0  0  0  0
   -6.6224   20.1957   -4.5774 H   0  0  0  0  0  0  0  0  0  0  0  0
   -7.7425   18.6315   -0.7341 H   0  0  0  0  0  0  0  0  0  0  0  0
   -5.4359   18.1138   -0.2330 H   0  0  0  0  0  0  0  0  0  0  0  0
   -4.2805   19.6419   -4.1247 H   0  0  0  0  0  0  0  0  0  0  0  0
   -3.6389   17.1683   -0.1906 H   0  0  0  0  0  0  0  0  0  0  0  0
   -1.8904   17.3025   -0.7053 H   0  0  0  0  0  0  0  0  0  0  0  0
   -1.1517   21.6435   -1.0287 H   0  0  0  0  0  0  0  0  0  0  0  0
   -1.7495   20.1694   -0.2665 H   0  0  0  0  0  0  0  0  0  0  0  0
   -2.8450   21.1884   -1.2457 H   0  0  0  0  0  0  0  0  0  0  0  0
    0.1156   21.2937   -2.9108 H   0  0  0  0  0  0  0  0  0  0  0  0
   -2.5301   17.3353   -4.1897 H   0  0  0  0  0  0  0  0  0  0  0  0
   -0.3150   15.7048   -6.6167 H   0  0  0  0  0  0  0  0  0  0  0  0
   -1.4744   15.9173   -5.3164 H   0  0  0  0  0  0  0  0  0  0  0  0
    0.2457   16.1009   -4.9756 H   0  0  0  0  0  0  0  0  0  0  0  0
   -1.8370   19.1058   -7.3209 H   0  0  0  0  0  0  0  0  0  0  0  0
   -2.7211   17.7463   -6.6406 H   0  0  0  0  0  0  0  0  0  0  0  0
   -1.5875   17.4810   -7.9742 H   0  0  0  0  0  0  0  0  0  0  0  0
    0.7726   17.8323   -7.7504 H   0  0  0  0  0  0  0  0  0  0  0  0
    1.5621   17.7451   -6.2051 H   0  0  0  0  0  0  0  0  0  0  0  0
    0.0080   20.2003   -7.2033 H   0  0  0  0  0  0  0  0  0  0  0  0
    1.7466   20.0188   -7.3203 H   0  0  0  0  0  0  0  0  0  0  0  0
    1.1969   22.2267   -4.3279 H   0  0  0  0  0  0  0  0  0  0  0  0
    0.1056   22.1890   -5.7171 H   0  0  0  0  0  0  0  0  0  0  0  0
    1.8719   22.1502   -5.9378 H   0  0  0  0  0  0  0  0  0  0  0  0
    2.3826   18.6590   -4.5961 H   0  0  0  0  0  0  0  0  0  0  0  0
    2.4770   20.1235   -3.6468 H   0  0  0  0  0  0  0  0  0  0  0  0
    3.1890   20.0800   -5.2737 H   0  0  0  0  0  0  0  0  0  0  0  0
  1  2  2  0  0  0  0
  2  3  1  0  0  0  0
  2  4  1  0  0  0  0
  4  5  2  0  0  0  0
  4  6  1  0  0  0  0
  5  9  1  0  0  0  0
  5 27  1  0  0  0  0
  6  7  2  0  0  0  0
  6 28  1  0  0  0  0
  7  8  1  0  0  0  0
  7 29  1  0  0  0  0
  8  9  2  0  0  0  0
  8 10  1  0  0  0  0
  9 30  1  0  0  0  0
 10 11  2  0  0  0  0
 10 12  1  0  0  0  0
 11 31  1  0  0  0  0
 11 32  1  0  0  0  0
 12 13  2  0  0  0  0
 12 16  1  0  0  0  0
 13 14  1  0  0  0  0
 13 15  1  0  0  0  0
 14 33  1  0  0  0  0
 14 34  1  0  0  0  0
 14 35  1  0  0  0  0
 15 24  2  0  0  0  0
 15 36  1  0  0  0  0
 16 17  2  0  0  0  0
 16 37  1  0  0  0  0
 17 18  1  0  0  0  0
 17 24  1  0  0  0  0
 18 19  1  0  0  0  0
 18 20  1  0  0  0  0
 18 21  1  0  0  0  0
 19 38  1  0  0  0  0
 19 39  1  0  0  0  0
 19 40  1  0  0  0  0
 20 41  1  0  0  0  0
 20 42  1  0  0  0  0
 20 43  1  0  0  0  0
 21 22  1  0  0  0  0
 21 44  1  0  0  0  0
 21 45  1  0  0  0  0
 22 23  1  0  0  0  0
 22 46  1  0  0  0  0
 22 47  1  0  0  0  0
 23 24  1  0  0  0  0
 23 25  1  0  0  0  0
 23 26  1  0  0  0  0
 25 48  1  0  0  0  0
 25 49  1  0  0  0  0
 25 50  1  0  0  0  0
 26 51  1  0  0  0  0
 26 52  1  0  0  0  0
 26 53  1  0  0  0  0
M  END
$$$$
