9VU
 OpenBabel04111918093D

 39 42  0  0  1  0  0  0  0  0999 V2000
   -8.2388   35.4854    7.4316 O   0  0  0  0  0  0  0  0  0  0  0  0
   -9.2252   36.0985    7.7057 C   0  0  0  0  0  0  0  0  0  0  0  0
  -10.5114   35.6054    7.7053 N   0  0  0  0  0  0  0  0  0  0  0  0
  -11.4024   36.6244    7.9965 C   0  0  0  0  0  0  0  0  0  0  0  0
  -12.7658   36.5129    8.1009 C   0  0  0  0  0  0  0  0  0  0  0  0
  -13.5115   37.6459    8.3569 C   0  0  0  0  0  0  0  0  0  0  0  0
  -12.8721   38.8772    8.4985 C   0  0  0  0  0  0  0  0  0  0  0  0
  -13.6867   40.0941    8.7698 C   0  0  0  0  0  0  0  0  0  0  0  0
  -11.4813   38.9703    8.3980 C   0  0  0  0  0  0  0  0  0  0  0  0
  -10.6374   40.6396    8.6389 Br  0  0  0  0  0  0  0  0  0  0  0  0
  -10.7524   37.8340    8.1407 C   0  0  0  0  0  0  0  0  0  0  0  0
   -9.2919   37.6113    7.9522 C   0  0  2  0  0  0  0  0  0  0  0  0
   -8.8683   38.2240    6.7321 O   0  0  0  0  0  0  0  0  0  0  0  0
   -8.3827   38.0685    9.0536 C   0  0  0  0  0  0  0  0  0  0  0  0
   -8.5697   37.3475   10.3611 C   0  0  0  0  0  0  0  0  0  0  0  0
   -9.2627   36.3496   10.4751 O   0  0  0  0  0  0  0  0  0  0  0  0
   -7.8284   37.8793   11.5482 C   0  0  0  0  0  0  0  0  0  0  0  0
   -7.2513   39.1564   11.5162 C   0  0  0  0  0  0  0  0  0  0  0  0
   -6.5548   39.6206   12.6078 C   0  0  0  0  0  0  0  0  0  0  0  0
   -5.9261   40.8293   12.7366 O   0  0  0  0  0  0  0  0  0  0  0  0
   -5.0986   40.5621   13.8910 C   0  0  0  0  0  0  0  0  0  0  0  0
   -5.6966   39.5176   14.6945 O   0  0  0  0  0  0  0  0  0  0  0  0
   -6.4233   38.8692   13.7337 C   0  0  0  0  0  0  0  0  0  0  0  0
   -6.9952   37.6146   13.8160 C   0  0  0  0  0  0  0  0  0  0  0  0
   -7.7055   37.1148   12.7104 C   0  0  0  0  0  0  0  0  0  0  0  0
  -10.7225   34.6440    7.5681 H   0  0  0  0  0  0  0  0  0  0  0  0
  -13.2108   35.5549    7.9744 H   0  0  0  0  0  0  0  0  0  0  0  0
  -14.5915   37.5656    8.4482 H   0  0  0  0  0  0  0  0  0  0  0  0
  -14.7409   39.8236    8.8156 H   0  0  0  0  0  0  0  0  0  0  0  0
  -13.5285   40.8142    7.9617 H   0  0  0  0  0  0  0  0  0  0  0  0
  -13.3767   40.5209    9.7277 H   0  0  0  0  0  0  0  0  0  0  0  0
   -9.3867   37.8438    5.9998 H   0  0  0  0  0  0  0  0  0  0  0  0
   -8.5648   39.1309    9.1960 H   0  0  0  0  0  0  0  0  0  0  0  0
   -7.3504   37.9427    8.7223 H   0  0  0  0  0  0  0  0  0  0  0  0
   -7.3423   39.7926   10.6575 H   0  0  0  0  0  0  0  0  0  0  0  0
   -4.9557   41.4776   14.4912 H   0  0  0  0  0  0  0  0  0  0  0  0
   -4.0897   40.2359   13.5590 H   0  0  0  0  0  0  0  0  0  0  0  0
   -6.8770   37.0343   14.7042 H   0  0  0  0  0  0  0  0  0  0  0  0
   -8.1615   36.1309   12.7745 H   0  0  0  0  0  0  0  0  0  0  0  0
  1  2  2  0  0  0  0
  2  3  1  0  0  0  0
  2 12  1  0  0  0  0
  3  4  1  0  0  0  0
  3 26  1  0  0  0  0
  4  5  2  0  0  0  0
  4 11  1  0  0  0  0
  5  6  1  0  0  0  0
  5 27  1  0  0  0  0
  6  7  2  0  0  0  0
  6 28  1  0  0  0  0
  7  8  1  0  0  0  0
  7  9  1  0  0  0  0
  8 29  1  0  0  0  0
  8 30  1  0  0  0  0
  8 31  1  0  0  0  0
  9 10  1  0  0  0  0
  9 11  2  0  0  0  0
 11 12  1  0  0  0  0
 12 13  1  6  0  0  0
 12 14  1  0  0  0  0
 13 32  1  0  0  0  0
 14 15  1  0  0  0  0
 14 33  1  0  0  0  0
 14 34  1  0  0  0  0
 15 16  2  0  0  0  0
 15 17  1  0  0  0  0
 17 18  2  0  0  0  0
 17 25  1  0  0  0  0
 18 19  1  0  0  0  0
 18 35  1  0  0  0  0
 19 20  1  0  0  0  0
 19 23  2  0  0  0  0
 20 21  1  0  0  0  0
 21 22  1  0  0  0  0
 21 36  1  0  0  0  0
 21 37  1  0  0  0  0
 22 23  1  0  0  0  0
 23 24  1  0  0  0  0
 24 25  2  0  0  0  0
 24 38  1  0  0  0  0
 25 39  1  0  0  0  0
M  END
$$$$
