A1R
 OpenBabel04111917533D

 58 61  0  0  1  0  0  0  0  0999 V2000
   23.1855   -4.3364   -1.2773 N   0  0  0  0  0  0  0  0  0  0  0  0
   24.0279   -5.2911   -0.8287 C   0  0  0  0  0  0  0  0  0  0  0  0
   25.2997   -5.1618   -0.4116 N   0  0  0  0  0  0  0  0  0  0  0  0
   25.6890   -3.8718   -0.4433 C   0  0  0  0  0  0  0  0  0  0  0  0
   24.9402   -2.7827   -0.8726 C   0  0  0  0  0  0  0  0  0  0  0  0
   23.6378   -3.0613   -1.3220 C   0  0  0  0  0  0  0  0  0  0  0  0
   22.7914   -2.0946   -1.8324 N   0  0  0  0  0  0  0  0  0  0  0  0
   25.6745   -1.6274   -0.7913 N   0  0  0  0  0  0  0  0  0  0  0  0
   26.8236   -1.9886   -0.2764 C   0  0  0  0  0  0  0  0  0  0  0  0
   26.8986   -3.3442   -0.0713 N   0  3  0  0  0  0  0  0  0  0  0  0
   28.0385   -4.1159    0.3881 C   0  0  1  0  0  0  0  0  0  0  0  0
   29.4067   -3.6403   -0.1053 C   0  0  2  0  0  0  0  0  0  0  0  0
   30.2565   -4.7722   -0.4010 O   0  0  0  0  0  0  0  0  0  0  0  0
   29.9588   -2.8837    1.0948 C   0  0  2  0  0  0  0  0  0  0  0  0
   31.3821   -2.8523    1.0201 O   0  0  0  0  0  0  0  0  0  0  0  0
   28.0561   -4.0959    1.8290 O   0  0  0  0  0  0  0  0  0  0  0  0
   29.3724   -3.6776    2.2620 C   0  0  2  0  0  0  0  0  0  0  0  0
   29.2726   -2.9103    3.5867 C   0  0  0  0  0  0  0  0  0  0  0  0
   28.5875   -1.6705    3.4111 O   0  0  0  0  0  0  0  0  0  0  0  0
   28.9636   -0.4722    4.4600 P   0  0  2  0  0  0  0  0  0  0  0  0
   27.9671    0.6636    4.3014 O   0  0  0  0  0  0  0  0  0  0  0  0
   30.4220   -0.1453    4.2865 O   0  0  0  0  0  0  0  0  0  0  0  0
   28.6309   -1.2197    5.8284 O   0  0  0  0  0  0  0  0  0  0  0  0
   29.4096   -1.2923    7.2152 P   0  0  1  0  0  0  0  0  0  0  0  0
   28.4747   -1.8730    8.2572 O   0  0  0  0  0  0  0  0  0  0  0  0
   30.7874   -1.8723    7.0522 O   0  0  0  0  0  0  0  0  0  0  0  0
   29.5483    0.2909    7.5627 O   0  0  0  0  0  0  0  0  0  0  0  0
   28.6193    0.8081    8.4957 C   0  0  0  0  0  0  0  0  0  0  0  0
   28.7798    2.9465    7.2696 N   0  3  0  0  0  0  0  0  0  0  0  0
   27.5121    3.7315    7.2675 C   0  0  0  0  0  0  0  0  0  0  0  0
   26.0204    4.4639    9.0806 O   0  0  0  0  0  0  0  0  0  0  0  0
   26.7972    3.3762    8.5759 C   0  0  2  0  0  0  0  0  0  0  0  0
   28.5709    4.2671    9.9850 O   0  0  0  0  0  0  0  0  0  0  0  0
   27.9520    3.0531    9.5246 C   0  0  2  0  0  0  0  0  0  0  0  0
   28.9338    2.2888    8.6319 C   0  0  1  0  0  0  0  0  0  0  0  0
   23.6250   -6.2999   -0.8059 H   0  0  0  0  0  0  0  0  0  0  0  0
   23.0688   -1.1287   -1.7230 H   0  0  0  0  0  0  0  0  0  0  0  0
   21.8299   -2.3574   -1.9724 H   0  0  0  0  0  0  0  0  0  0  0  0
   27.6377   -1.3120   -0.0421 H   0  0  0  0  0  0  0  0  0  0  0  0
   27.8758   -5.1565    0.0790 H   0  0  0  0  0  0  0  0  0  0  0  0
   29.3753   -3.0373   -1.0175 H   0  0  0  0  0  0  0  0  0  0  0  0
   31.1092   -4.3906   -0.6849 H   0  0  0  0  0  0  0  0  0  0  0  0
   29.5824   -1.8560    1.0925 H   0  0  0  0  0  0  0  0  0  0  0  0
   31.7118   -3.7162    1.3216 H   0  0  0  0  0  0  0  0  0  0  0  0
   29.9576   -4.5924    2.4310 H   0  0  0  0  0  0  0  0  0  0  0  0
   30.2768   -2.7569    3.9971 H   0  0  0  0  0  0  0  0  0  0  0  0
   28.6975   -3.5160    4.2989 H   0  0  0  0  0  0  0  0  0  0  0  0
   28.7473    0.3190    9.4672 H   0  0  0  0  0  0  0  0  0  0  0  0
   27.5983    0.6382    8.1366 H   0  0  0  0  0  0  0  0  0  0  0  0
   28.8023    2.2051    6.5301 H   0  0  0  0  0  0  0  0  0  0  0  0
   26.9321    3.4628    6.3788 H   0  0  0  0  0  0  0  0  0  0  0  0
   27.7739    4.7959    7.2240 H   0  0  0  0  0  0  0  0  0  0  0  0
   25.4642    4.1277    9.8071 H   0  0  0  0  0  0  0  0  0  0  0  0
   26.1470    2.5082    8.4258 H   0  0  0  0  0  0  0  0  0  0  0  0
   27.8806    4.7912   10.4352 H   0  0  0  0  0  0  0  0  0  0  0  0
   27.6314    2.4939   10.4090 H   0  0  0  0  0  0  0  0  0  0  0  0
   29.9766    2.4504    8.9243 H   0  0  0  0  0  0  0  0  0  0  0  0
   29.5953    3.5388    7.0782 H   0  0  0  0  0  0  0  0  0  0  0  0
  1  2  2  0  0  0  0
  1  6  1  0  0  0  0
  2  3  1  0  0  0  0
  2 36  1  0  0  0  0
  3  4  2  0  0  0  0
  4  5  1  0  0  0  0
  4 10  1  0  0  0  0
  5  6  2  0  0  0  0
  5  8  1  0  0  0  0
  6  7  1  0  0  0  0
  7 37  1  0  0  0  0
  7 38  1  0  0  0  0
  8  9  1  0  0  0  0
  9 10  2  0  0  0  0
  9 39  1  0  0  0  0
 10 11  1  0  0  0  0
 11 12  1  0  0  0  0
 11 16  1  0  0  0  0
 11 40  1  6  0  0  0
 12 13  1  0  0  0  0
 12 14  1  0  0  0  0
 12 41  1  6  0  0  0
 13 42  1  0  0  0  0
 14 15  1  0  0  0  0
 14 17  1  0  0  0  0
 14 43  1  1  0  0  0
 15 44  1  0  0  0  0
 16 17  1  0  0  0  0
 17 18  1  0  0  0  0
 17 45  1  1  0  0  0
 18 19  1  0  0  0  0
 18 46  1  0  0  0  0
 18 47  1  0  0  0  0
 20 19  1  6  0  0  0
 20 21  2  0  0  0  0
 20 22  1  0  0  0  0
 20 23  1  0  0  0  0
 24 23  1  6  0  0  0
 24 25  2  0  0  0  0
 24 26  1  0  0  0  0
 24 27  1  0  0  0  0
 27 28  1  0  0  0  0
 28 35  1  0  0  0  0
 28 48  1  0  0  0  0
 28 49  1  0  0  0  0
 29 30  1  0  0  0  0
 29 35  1  0  0  0  0
 29 50  1  0  0  0  0
 29 58  1  0  0  0  0
 30 32  1  0  0  0  0
 30 51  1  0  0  0  0
 30 52  1  0  0  0  0
 31 32  1  0  0  0  0
 31 53  1  0  0  0  0
 32 34  1  0  0  0  0
 32 54  1  6  0  0  0
 33 34  1  0  0  0  0
 33 55  1  0  0  0  0
 34 35  1  0  0  0  0
 34 56  1  1  0  0  0
 35 57  1  1  0  0  0
M  CHG  2  10   1  29   1
M  END
$$$$
