A2G
 OpenBabel04111920513D

 30 30  0  0  1  0  0  0  0  0999 V2000
   86.4795   83.7926  118.6571 O   0  0  0  0  0  0  0  0  0  0  0  0
   86.8515   83.6706  117.2915 C   0  0  2  0  0  0  0  0  0  0  0  0
   85.9887   84.4787  116.4857 O   0  0  0  0  0  0  0  0  0  0  0  0
   86.8151   82.2041  116.8028 C   0  0  2  0  0  0  0  0  0  0  0  0
   87.1167   82.0989  115.3694 N   0  0  0  0  0  0  0  0  0  0  0  0
   85.4623   81.5568  117.1551 C   0  0  1  0  0  0  0  0  0  0  0  0
   85.4440   80.1761  116.7731 O   0  0  0  0  0  0  0  0  0  0  0  0
   85.2211   81.6782  118.6658 C   0  0  1  0  0  0  0  0  0  0  0  0
   86.2301   80.9824  119.4098 O   0  0  0  0  0  0  0  0  0  0  0  0
   85.2209   83.1782  118.9919 C   0  0  1  0  0  0  0  0  0  0  0  0
   84.9463   83.4399  120.4692 C   0  0  0  0  0  0  0  0  0  0  0  0
   84.7275   84.8443  120.6367 O   0  0  0  0  0  0  0  0  0  0  0  0
   88.1094   81.2878  114.9081 C   0  0  0  0  0  0  0  0  0  0  0  0
   88.8341   80.6146  115.6293 O   0  0  0  0  0  0  0  0  0  0  0  0
   88.2903   81.3296  113.4255 C   0  0  0  0  0  0  0  0  0  0  0  0
   87.8731   84.0516  117.1850 H   0  0  0  0  0  0  0  0  0  0  0  0
   86.1369   85.3993  116.7817 H   0  0  0  0  0  0  0  0  0  0  0  0
   87.5882   81.6551  117.3547 H   0  0  0  0  0  0  0  0  0  0  0  0
   86.5247   82.6363  114.7246 H   0  0  0  0  0  0  0  0  0  0  0  0
   84.6472   82.0659  116.6208 H   0  0  0  0  0  0  0  0  0  0  0  0
   84.5700   79.8058  116.9833 H   0  0  0  0  0  0  0  0  0  0  0  0
   84.2659   81.2174  118.9422 H   0  0  0  0  0  0  0  0  0  0  0  0
   86.2753   80.0640  119.0736 H   0  0  0  0  0  0  0  0  0  0  0  0
   84.4345   83.6744  118.4081 H   0  0  0  0  0  0  0  0  0  0  0  0
   85.7941   83.1330  121.0896 H   0  0  0  0  0  0  0  0  0  0  0  0
   84.0413   82.9162  120.7980 H   0  0  0  0  0  0  0  0  0  0  0  0
   84.5872   85.0156  121.5824 H   0  0  0  0  0  0  0  0  0  0  0  0
   89.1243   80.6708  113.1426 H   0  0  0  0  0  0  0  0  0  0  0  0
   88.5260   82.3451  113.0909 H   0  0  0  0  0  0  0  0  0  0  0  0
   87.3984   80.9710  112.9183 H   0  0  0  0  0  0  0  0  0  0  0  0
  1  2  1  0  0  0  0
  1 10  1  0  0  0  0
  2  3  1  0  0  0  0
  2  4  1  0  0  0  0
  2 16  1  6  0  0  0
  3 17  1  0  0  0  0
  4  5  1  0  0  0  0
  4  6  1  0  0  0  0
  4 18  1  1  0  0  0
  5 13  1  0  0  0  0
  5 19  1  0  0  0  0
  6  7  1  0  0  0  0
  6  8  1  0  0  0  0
  6 20  1  6  0  0  0
  7 21  1  0  0  0  0
  8  9  1  0  0  0  0
  8 10  1  0  0  0  0
  8 22  1  1  0  0  0
  9 23  1  0  0  0  0
 10 11  1  0  0  0  0
 10 24  1  6  0  0  0
 11 12  1  0  0  0  0
 11 25  1  0  0  0  0
 11 26  1  0  0  0  0
 12 27  1  0  0  0  0
 13 14  2  0  0  0  0
 13 15  1  0  0  0  0
 15 28  1  0  0  0  0
 15 29  1  0  0  0  0
 15 30  1  0  0  0  0
M  END
$$$$
