A3T
 OpenBabel04111921463D

 48 50  0  0  1  0  0  0  0  0999 V2000
   11.9545   -3.1649   -3.7782 C   0  0  0  0  0  0  0  0  0  0  0  0
    9.6958   -3.6705   -2.9252 N   0  3  0  0  0  0  0  0  0  0  0  0
   11.9472   -2.0867   -3.1881 O   0  0  0  0  0  0  0  0  0  0  0  0
   17.0505    0.4430    0.4934 N   0  0  0  0  0  0  0  0  0  0  0  0
   16.1680   -0.5795    0.5571 C   0  0  0  0  0  0  0  0  0  0  0  0
   16.0254   -1.6277   -0.2817 N   0  0  0  0  0  0  0  0  0  0  0  0
   16.9366   -1.5757   -1.2642 C   0  0  0  0  0  0  0  0  0  0  0  0
   17.8999   -0.5919   -1.4554 C   0  0  0  0  0  0  0  0  0  0  0  0
   17.9292    0.4652   -0.5342 C   0  0  0  0  0  0  0  0  0  0  0  0
   18.8277    1.5197   -0.6283 N   0  0  0  0  0  0  0  0  0  0  0  0
   18.6827   -0.8710   -2.5476 N   0  0  0  0  0  0  0  0  0  0  0  0
   18.2300   -2.0193   -2.9952 C   0  0  0  0  0  0  0  0  0  0  0  0
   13.0976   -3.8413   -4.1188 N   0  0  0  0  0  0  0  0  0  0  0  0
   17.1329   -2.4618   -2.2931 N   0  3  0  0  0  0  0  0  0  0  0  0
   10.6325   -3.8547   -4.1003 C   0  0  1  0  0  0  0  0  0  0  0  0
    9.9326   -3.2989   -5.3597 C   0  0  2  0  0  0  0  0  0  0  0  0
    9.0325   -4.3214   -5.8047 O   0  0  0  0  0  0  0  0  0  0  0  0
   16.4450   -3.7123   -2.5379 C   0  0  1  0  0  0  0  0  0  0  0  0
   14.9144   -3.7557   -2.3920 C   0  0  2  0  0  0  0  0  0  0  0  0
   14.4759   -5.1153   -2.1713 O   0  0  0  0  0  0  0  0  0  0  0  0
   14.4210   -3.3198   -3.7681 C   0  0  1  0  0  0  0  0  0  0  0  0
   15.5172   -3.8335   -4.7033 C   0  0  2  0  0  0  0  0  0  0  0  0
   16.7028   -4.0669   -3.9205 O   0  0  0  0  0  0  0  0  0  0  0  0
   15.8024   -2.8153   -5.8117 C   0  0  0  0  0  0  0  0  0  0  0  0
   17.0171   -3.1242   -6.4753 O   0  0  0  0  0  0  0  0  0  0  0  0
   10.8694   -2.8984   -6.4919 C   0  0  0  0  0  0  0  0  0  0  0  0
    8.7704   -4.0760   -3.1262 H   0  0  0  0  0  0  0  0  0  0  0  0
   10.0739   -4.0882   -2.0690 H   0  0  0  0  0  0  0  0  0  0  0  0
   15.4866   -0.5486    1.4069 H   0  0  0  0  0  0  0  0  0  0  0  0
   19.6328    1.3391   -1.2195 H   0  0  0  0  0  0  0  0  0  0  0  0
   18.9772    2.0196    0.2370 H   0  0  0  0  0  0  0  0  0  0  0  0
   18.6605   -2.5731   -3.8190 H   0  0  0  0  0  0  0  0  0  0  0  0
   13.0651   -4.8296   -4.3704 H   0  0  0  0  0  0  0  0  0  0  0  0
   10.7789   -4.9386   -4.1723 H   0  0  0  0  0  0  0  0  0  0  0  0
    9.3125   -2.4316   -5.1033 H   0  0  0  0  0  0  0  0  0  0  0  0
    8.7189   -4.1002   -6.7057 H   0  0  0  0  0  0  0  0  0  0  0  0
   16.9320   -4.4640   -1.9060 H   0  0  0  0  0  0  0  0  0  0  0  0
   14.5089   -3.1489   -1.5784 H   0  0  0  0  0  0  0  0  0  0  0  0
   13.6139   -5.0713   -1.7258 H   0  0  0  0  0  0  0  0  0  0  0  0
   14.3812   -2.2234   -3.7871 H   0  0  0  0  0  0  0  0  0  0  0  0
   15.2622   -4.7983   -5.1551 H   0  0  0  0  0  0  0  0  0  0  0  0
   15.8890   -1.7997   -5.4114 H   0  0  0  0  0  0  0  0  0  0  0  0
   14.9941   -2.8216   -6.5497 H   0  0  0  0  0  0  0  0  0  0  0  0
   17.6990   -3.2178   -5.7838 H   0  0  0  0  0  0  0  0  0  0  0  0
   10.2980   -2.6254   -7.3863 H   0  0  0  0  0  0  0  0  0  0  0  0
   11.5332   -3.7201   -6.7751 H   0  0  0  0  0  0  0  0  0  0  0  0
   11.4762   -2.0312   -6.2101 H   0  0  0  0  0  0  0  0  0  0  0  0
    9.5903   -2.6626   -2.7346 H   0  0  0  0  0  0  0  0  0  0  0  0
  1  3  2  0  0  0  0
  1 13  1  0  0  0  0
  1 15  1  0  0  0  0
  2 15  1  0  0  0  0
  2 27  1  0  0  0  0
  2 28  1  0  0  0  0
  2 48  1  0  0  0  0
  4  5  2  0  0  0  0
  4  9  1  0  0  0  0
  5  6  1  0  0  0  0
  5 29  1  0  0  0  0
  6  7  2  0  0  0  0
  7  8  1  0  0  0  0
  7 14  1  0  0  0  0
  8  9  2  0  0  0  0
  8 11  1  0  0  0  0
  9 10  1  0  0  0  0
 10 30  1  0  0  0  0
 10 31  1  0  0  0  0
 11 12  1  0  0  0  0
 12 14  2  0  0  0  0
 12 32  1  0  0  0  0
 13 21  1  0  0  0  0
 13 33  1  0  0  0  0
 14 18  1  0  0  0  0
 15 16  1  0  0  0  0
 15 34  1  6  0  0  0
 16 17  1  0  0  0  0
 16 26  1  0  0  0  0
 16 35  1  1  0  0  0
 17 36  1  0  0  0  0
 18 19  1  0  0  0  0
 18 23  1  0  0  0  0
 18 37  1  1  0  0  0
 19 20  1  0  0  0  0
 19 21  1  0  0  0  0
 19 38  1  1  0  0  0
 20 39  1  0  0  0  0
 21 22  1  0  0  0  0
 21 40  1  6  0  0  0
 22 23  1  0  0  0  0
 22 24  1  0  0  0  0
 22 41  1  6  0  0  0
 24 25  1  0  0  0  0
 24 42  1  0  0  0  0
 24 43  1  0  0  0  0
 25 44  1  0  0  0  0
 26 45  1  0  0  0  0
 26 46  1  0  0  0  0
 26 47  1  0  0  0  0
M  CHG  2   2   1  14   1
M  END
$$$$
