ABU
 OpenBabel04111918483D

 16 15  0  0  0  0  0  0  0  0999 V2000
    8.1893  -14.1103   10.4260 N   0  3  0  0  0  0  0  0  0  0  0  0
    6.8215  -13.5713   10.3880 C   0  0  0  0  0  0  0  0  0  0  0  0
    6.4256  -13.2716    8.9576 C   0  0  0  0  0  0  0  0  0  0  0  0
    5.0089  -12.6913    8.9628 C   0  0  0  0  0  0  0  0  0  0  0  0
    4.3721  -12.4817    7.5996 C   0  0  0  0  0  0  0  0  0  0  0  0
    3.1245  -12.3034    7.6479 O   0  0  0  0  0  0  0  0  0  0  0  0
    5.1611  -12.5345    6.6199 O   0  0  0  0  0  0  0  0  0  0  0  0
    8.4748  -14.3219   11.3905 H   0  0  0  0  0  0  0  0  0  0  0  0
    8.2552  -14.9753    9.8760 H   0  0  0  0  0  0  0  0  0  0  0  0
    6.8177  -12.6659   11.0106 H   0  0  0  0  0  0  0  0  0  0  0  0
    6.1673  -14.3277   10.8401 H   0  0  0  0  0  0  0  0  0  0  0  0
    6.4456  -14.1867    8.3609 H   0  0  0  0  0  0  0  0  0  0  0  0
    7.1197  -12.5541    8.5129 H   0  0  0  0  0  0  0  0  0  0  0  0
    5.0325  -11.7331    9.5014 H   0  0  0  0  0  0  0  0  0  0  0  0
    4.3638  -13.3674    9.5379 H   0  0  0  0  0  0  0  0  0  0  0  0
    8.8583  -13.4384   10.0326 H   0  0  0  0  0  0  0  0  0  0  0  0
  1  2  1  0  0  0  0
  1  8  1  0  0  0  0
  1  9  1  0  0  0  0
  1 16  1  0  0  0  0
  2  3  1  0  0  0  0
  2 10  1  0  0  0  0
  2 11  1  0  0  0  0
  3  4  1  0  0  0  0
  3 12  1  0  0  0  0
  3 13  1  0  0  0  0
  4  5  1  0  0  0  0
  4 14  1  0  0  0  0
  4 15  1  0  0  0  0
  5  6  2  0  0  0  0
  5  7  1  0  0  0  0
M  CHG  1   1   1
M  END
$$$$
