ADE
 OpenBabel04111921533D

 15 16  0  0  0  0  0  0  0  0999 V2000
   41.6210   34.3992  -11.4099 N   0  0  0  0  0  0  0  0  0  0  0  0
   41.8913   33.6570  -12.4601 C   0  0  0  0  0  0  0  0  0  0  0  0
   42.8542   34.2273  -13.2482 N   0  3  0  0  0  0  0  0  0  0  0  0
   43.2230   35.4056  -12.6608 C   0  0  0  0  0  0  0  0  0  0  0  0
   44.1317   36.3950  -12.9673 C   0  0  0  0  0  0  0  0  0  0  0  0
   44.9533   36.3574  -14.0652 N   0  0  0  0  0  0  0  0  0  0  0  0
   44.2089   37.4343  -12.1219 N   0  0  0  0  0  0  0  0  0  0  0  0
   43.4089   37.4384  -11.0310 C   0  0  0  0  0  0  0  0  0  0  0  0
   42.5092   36.5176  -10.6584 N   0  0  0  0  0  0  0  0  0  0  0  0
   42.4438   35.4884  -11.5225 C   0  0  0  0  0  0  0  0  0  0  0  0
   41.4316   32.7094  -12.7051 H   0  0  0  0  0  0  0  0  0  0  0  0
   43.2269   33.8488  -14.1050 H   0  0  0  0  0  0  0  0  0  0  0  0
   45.5038   37.1907  -14.2292 H   0  0  0  0  0  0  0  0  0  0  0  0
   44.8531   35.6749  -14.7939 H   0  0  0  0  0  0  0  0  0  0  0  0
   43.5091   38.2964  -10.3726 H   0  0  0  0  0  0  0  0  0  0  0  0
  1  2  1  0  0  0  0
  1 10  1  0  0  0  0
  2  3  2  0  0  0  0
  2 11  1  0  0  0  0
  3  4  1  0  0  0  0
  3 12  1  0  0  0  0
  4  5  2  0  0  0  0
  4 10  1  0  0  0  0
  5  6  1  0  0  0  0
  5  7  1  0  0  0  0
  6 13  1  0  0  0  0
  6 14  1  0  0  0  0
  7  8  2  0  0  0  0
  8  9  1  0  0  0  0
  8 15  1  0  0  0  0
  9 10  2  0  0  0  0
M  CHG  1   3   1
M  END
$$$$
