ADK
 OpenBabel04111917423D

 18 19  0  0  0  0  0  0  0  0999 V2000
   26.1259  -21.5020    1.6399 N   0  0  0  0  0  0  0  0  0  0  0  0
   27.3933  -21.4945    1.9226 C   0  0  0  0  0  0  0  0  0  0  0  0
   28.3370  -22.4718    1.9011 N   0  3  0  0  0  0  0  0  0  0  0  0
   29.6245  -22.1131    2.2688 C   0  0  0  0  0  0  0  0  0  0  0  0
   30.0123  -20.9260    2.6403 N   0  0  0  0  0  0  0  0  0  0  0  0
   29.0494  -19.9187    2.6931 C   0  0  0  0  0  0  0  0  0  0  0  0
   29.4144  -18.6801    3.1548 N   0  0  0  0  0  0  0  0  0  0  0  0
   27.7664  -20.1404    2.3271 C   0  0  0  0  0  0  0  0  0  0  0  0
   26.6493  -19.3522    2.2779 N   0  0  0  0  0  0  0  0  0  0  0  0
   25.7295  -20.1906    1.8743 C   0  0  0  0  0  0  0  0  0  0  0  0
   27.9914  -23.8240    1.5268 C   0  0  0  0  0  0  0  0  0  0  0  0
   30.3511  -22.9419    2.2314 H   0  0  0  0  0  0  0  0  0  0  0  0
   28.7535  -17.9190    3.0228 H   0  0  0  0  0  0  0  0  0  0  0  0
   30.4080  -18.4946    3.2221 H   0  0  0  0  0  0  0  0  0  0  0  0
   24.6857  -19.8974    1.7154 H   0  0  0  0  0  0  0  0  0  0  0  0
   26.9272  -23.9160    1.2856 H   0  0  0  0  0  0  0  0  0  0  0  0
   28.1987  -24.5161    2.3479 H   0  0  0  0  0  0  0  0  0  0  0  0
   28.5544  -24.1383    0.6444 H   0  0  0  0  0  0  0  0  0  0  0  0
  1  2  1  0  0  0  0
  1 10  1  0  0  0  0
  2  3  2  0  0  0  0
  2  8  1  0  0  0  0
  3  4  1  0  0  0  0
  3 11  1  0  0  0  0
  4  5  2  0  0  0  0
  4 12  1  0  0  0  0
  5  6  1  0  0  0  0
  6  7  1  0  0  0  0
  6  8  2  0  0  0  0
  7 13  1  0  0  0  0
  7 14  1  0  0  0  0
  8  9  1  0  0  0  0
  9 10  2  0  0  0  0
 10 15  1  0  0  0  0
 11 16  1  0  0  0  0
 11 17  1  0  0  0  0
 11 18  1  0  0  0  0
M  CHG  1   3   1
M  END
$$$$
