ADP
 OpenBabel04111920063D

 39 41  0  0  1  0  0  0  0  0999 V2000
   -5.4370   27.2676   -6.4283 P   0  0  0  0  0  0  0  0  0  0  0  0
   -5.0899   26.3654   -7.6028 O   0  0  0  0  0  0  0  0  0  0  0  0
   -4.3400   28.2674   -6.0723 O   0  0  0  0  0  0  0  0  0  0  0  0
   -5.9097   26.4886   -5.1962 O   0  0  0  0  0  0  0  0  0  0  0  0
   -7.2585   28.6071   -8.3013 P   0  0  2  0  0  0  0  0  0  0  0  0
   -7.6432   27.5106   -9.2720 O   0  0  0  0  0  0  0  0  0  0  0  0
   -6.5654   29.8613   -8.8029 O   0  0  0  0  0  0  0  0  0  0  0  0
   -6.7374   28.1369   -6.8605 O   0  0  0  0  0  0  0  0  0  0  0  0
   -8.7555   29.1226   -7.8432 O   0  0  0  0  0  0  0  0  0  0  0  0
   -8.8897   30.3773   -7.2808 C   0  0  0  0  0  0  0  0  0  0  0  0
   -9.5979   31.3205   -8.2595 C   0  0  1  0  0  0  0  0  0  0  0  0
  -10.2690   32.3530   -7.4921 O   0  0  0  0  0  0  0  0  0  0  0  0
   -8.6148   32.0172   -9.2187 C   0  0  1  0  0  0  0  0  0  0  0  0
   -8.8826   31.8054  -10.6240 O   0  0  0  0  0  0  0  0  0  0  0  0
   -8.7877   33.5058   -8.9457 C   0  0  1  0  0  0  0  0  0  0  0  0
   -9.6047   34.1266   -9.9729 O   0  0  0  0  0  0  0  0  0  0  0  0
   -9.4974   33.5609   -7.6059 C   0  0  2  0  0  0  0  0  0  0  0  0
   -8.6234   33.7374   -6.4537 N   0  3  0  0  0  0  0  0  0  0  0  0
   -8.4374   32.9154   -5.3720 C   0  0  0  0  0  0  0  0  0  0  0  0
   -7.6416   33.4466   -4.4716 N   0  0  0  0  0  0  0  0  0  0  0  0
   -7.3117   34.6707   -4.9753 C   0  0  0  0  0  0  0  0  0  0  0  0
   -6.5255   35.7159   -4.4657 C   0  0  0  0  0  0  0  0  0  0  0  0
   -5.9069   35.6226   -3.2261 N   0  0  0  0  0  0  0  0  0  0  0  0
   -6.4232   36.8592   -5.1664 N   0  0  0  0  0  0  0  0  0  0  0  0
   -7.0952   36.9377   -6.3347 C   0  0  0  0  0  0  0  0  0  0  0  0
   -7.8917   36.0150   -6.9256 N   0  0  0  0  0  0  0  0  0  0  0  0
   -7.9369   34.8931   -6.1894 C   0  0  0  0  0  0  0  0  0  0  0  0
   -7.9210   30.7826   -6.9349 H   0  0  0  0  0  0  0  0  0  0  0  0
   -9.5056   30.2601   -6.3732 H   0  0  0  0  0  0  0  0  0  0  0  0
  -10.3600   30.7633   -8.8060 H   0  0  0  0  0  0  0  0  0  0  0  0
   -7.5853   31.7634   -9.0218 H   0  0  0  0  0  0  0  0  0  0  0  0
   -9.8454   31.7622  -10.7271 H   0  0  0  0  0  0  0  0  0  0  0  0
   -7.8263   34.0250   -8.9662 H   0  0  0  0  0  0  0  0  0  0  0  0
   -9.1377   33.8951  -10.8023 H   0  0  0  0  0  0  0  0  0  0  0  0
  -10.2116   34.3922   -7.5761 H   0  0  0  0  0  0  0  0  0  0  0  0
   -8.8901   31.9398   -5.2694 H   0  0  0  0  0  0  0  0  0  0  0  0
   -5.1982   36.3093   -3.0275 H   0  0  0  0  0  0  0  0  0  0  0  0
   -5.8180   34.6775   -2.8606 H   0  0  0  0  0  0  0  0  0  0  0  0
   -7.0138   37.8766   -6.8652 H   0  0  0  0  0  0  0  0  0  0  0  0
  1  2  2  0  0  0  0
  1  3  1  0  0  0  0
  1  4  1  0  0  0  0
  1  8  1  0  0  0  0
  5  6  2  6  0  0  0
  5  7  1  0  0  0  0
  5  8  1  0  0  0  0
  5  9  1  0  0  0  0
  9 10  1  0  0  0  0
 10 11  1  0  0  0  0
 10 28  1  0  0  0  0
 10 29  1  0  0  0  0
 11 12  1  0  0  0  0
 11 13  1  0  0  0  0
 11 30  1  6  0  0  0
 12 17  1  0  0  0  0
 13 14  1  0  0  0  0
 13 15  1  0  0  0  0
 13 31  1  1  0  0  0
 14 32  1  0  0  0  0
 15 16  1  0  0  0  0
 15 17  1  0  0  0  0
 15 33  1  1  0  0  0
 16 34  1  0  0  0  0
 17 18  1  0  0  0  0
 17 35  1  6  0  0  0
 18 19  2  0  0  0  0
 18 27  1  0  0  0  0
 19 20  1  0  0  0  0
 19 36  1  0  0  0  0
 20 21  1  0  0  0  0
 21 22  2  0  0  0  0
 21 27  1  0  0  0  0
 22 23  1  0  0  0  0
 22 24  1  0  0  0  0
 23 37  1  0  0  0  0
 23 38  1  0  0  0  0
 24 25  2  0  0  0  0
 25 26  1  0  0  0  0
 25 39  1  0  0  0  0
 26 27  2  0  0  0  0
M  CHG  1  18   1
M  END
$$$$
