ADP
 OpenBabel04111919203D

 39 41  0  0  1  0  0  0  0  0999 V2000
    1.0333  -36.8765   -4.4011 P   0  0  0  0  0  0  0  0  0  0  0  0
   -0.3201  -37.1406   -5.0705 O   0  0  0  0  0  0  0  0  0  0  0  0
    2.1393  -36.5949   -5.4162 O   0  0  0  0  0  0  0  0  0  0  0  0
    0.9085  -35.8550   -3.2822 O   0  0  0  0  0  0  0  0  0  0  0  0
    2.2249  -38.6842   -2.4001 P   0  0  2  0  0  0  0  0  0  0  0  0
    2.6282  -37.6015   -1.4191 O   0  0  0  0  0  0  0  0  0  0  0  0
    3.2493  -39.7762   -2.6902 O   0  0  0  0  0  0  0  0  0  0  0  0
    1.4169  -38.2825   -3.7162 O   0  0  0  0  0  0  0  0  0  0  0  0
    1.0200  -39.4912   -1.6336 O   0  0  0  0  0  0  0  0  0  0  0  0
   -0.1387  -38.7745   -1.2443 C   0  0  0  0  0  0  0  0  0  0  0  0
   -0.5397  -39.1921    0.1848 C   0  0  1  0  0  0  0  0  0  0  0  0
   -0.7186  -40.6379    0.2833 O   0  0  0  0  0  0  0  0  0  0  0  0
    0.5000  -38.7991    1.2332 C   0  0  1  0  0  0  0  0  0  0  0  0
    0.2154  -37.5541    1.8852 O   0  0  0  0  0  0  0  0  0  0  0  0
    0.4105  -39.9039    2.2742 C   0  0  1  0  0  0  0  0  0  0  0  0
   -0.5129  -39.5756    3.3378 O   0  0  0  0  0  0  0  0  0  0  0  0
   -0.0798  -41.1068    1.4868 C   0  0  2  0  0  0  0  0  0  0  0  0
    1.0050  -42.0315    1.1805 N   0  3  0  0  0  0  0  0  0  0  0  0
    1.8479  -41.9870    0.0968 C   0  0  0  0  0  0  0  0  0  0  0  0
    2.8041  -42.8865    0.1658 N   0  0  0  0  0  0  0  0  0  0  0  0
    2.5918  -43.5415    1.3507 C   0  0  0  0  0  0  0  0  0  0  0  0
    3.2845  -44.5864    1.9628 C   0  0  0  0  0  0  0  0  0  0  0  0
    4.3876  -45.1820    1.3906 N   0  0  0  0  0  0  0  0  0  0  0  0
    2.8444  -45.0405    3.1466 N   0  0  0  0  0  0  0  0  0  0  0  0
    1.7547  -44.4559    3.6856 C   0  0  0  0  0  0  0  0  0  0  0  0
    1.0021  -43.4386    3.1984 N   0  0  0  0  0  0  0  0  0  0  0  0
    1.4828  -43.0230    2.0006 C   0  0  0  0  0  0  0  0  0  0  0  0
   -0.9353  -39.0494   -1.9431 H   0  0  0  0  0  0  0  0  0  0  0  0
    0.0159  -37.6928   -1.2910 H   0  0  0  0  0  0  0  0  0  0  0  0
   -1.5062  -38.7296    0.4210 H   0  0  0  0  0  0  0  0  0  0  0  0
    1.5034  -38.7780    0.7928 H   0  0  0  0  0  0  0  0  0  0  0  0
    1.0567  -37.2640    2.2792 H   0  0  0  0  0  0  0  0  0  0  0  0
    1.3728  -40.0659    2.7686 H   0  0  0  0  0  0  0  0  0  0  0  0
   -0.2840  -38.6605    3.5921 H   0  0  0  0  0  0  0  0  0  0  0  0
   -0.8322  -41.6731    2.0476 H   0  0  0  0  0  0  0  0  0  0  0  0
    1.7387  -41.2807   -0.7091 H   0  0  0  0  0  0  0  0  0  0  0  0
    4.8593  -45.9318    1.8984 H   0  0  0  0  0  0  0  0  0  0  0  0
    4.7231  -44.8039    0.5271 H   0  0  0  0  0  0  0  0  0  0  0  0
    1.4264  -44.8686    4.6366 H   0  0  0  0  0  0  0  0  0  0  0  0
  1  2  2  0  0  0  0
  1  3  1  0  0  0  0
  1  4  1  0  0  0  0
  1  8  1  0  0  0  0
  5  6  2  1  0  0  0
  5  7  1  0  0  0  0
  5  8  1  0  0  0  0
  5  9  1  0  0  0  0
  9 10  1  0  0  0  0
 10 11  1  0  0  0  0
 10 28  1  0  0  0  0
 10 29  1  0  0  0  0
 11 12  1  0  0  0  0
 11 13  1  0  0  0  0
 11 30  1  1  0  0  0
 12 17  1  0  0  0  0
 13 14  1  0  0  0  0
 13 15  1  0  0  0  0
 13 31  1  6  0  0  0
 14 32  1  0  0  0  0
 15 16  1  0  0  0  0
 15 17  1  0  0  0  0
 15 33  1  1  0  0  0
 16 34  1  0  0  0  0
 17 18  1  0  0  0  0
 17 35  1  1  0  0  0
 18 19  2  0  0  0  0
 18 27  1  0  0  0  0
 19 20  1  0  0  0  0
 19 36  1  0  0  0  0
 20 21  1  0  0  0  0
 21 22  2  0  0  0  0
 21 27  1  0  0  0  0
 22 23  1  0  0  0  0
 22 24  1  0  0  0  0
 23 37  1  0  0  0  0
 23 38  1  0  0  0  0
 24 25  2  0  0  0  0
 25 26  1  0  0  0  0
 25 39  1  0  0  0  0
 26 27  2  0  0  0  0
M  CHG  1  18   1
M  END
$$$$
