AGK
 OpenBabel04111922063D

 22 22  0  0  1  0  0  0  0  0999 V2000
   78.8189   88.0136   20.5688 O   0  0  0  0  0  0  0  0  0  0  0  0
   79.0851   89.3638   20.1615 C   0  0  2  0  0  0  0  0  0  0  0  0
   77.8899   90.2660   20.5209 C   0  0  2  0  0  0  0  0  0  0  0  0
   77.5377   90.0423   21.8930 O   0  0  0  0  0  0  0  0  0  0  0  0
   76.7106   89.9423   19.6000 C   0  0  0  0  0  0  0  0  0  0  0  0
   77.1281   90.1813   18.2110 N   0  0  0  0  0  0  0  0  0  0  0  0
   79.3902   89.4288   18.6466 C   0  0  1  0  0  0  0  0  0  0  0  0
   80.4131   88.3266   18.2815 C   0  0  0  0  0  0  0  0  0  0  0  0
   81.1724   88.6616   17.1210 O   0  0  0  0  0  0  0  0  0  0  0  0
   78.1605   89.2235   17.8381 N   0  0  0  0  0  0  0  0  0  0  0  0
   78.3864   88.0792   21.4418 H   0  0  0  0  0  0  0  0  0  0  0  0
   79.9618   89.6840   20.7305 H   0  0  0  0  0  0  0  0  0  0  0  0
   78.1598   91.3228   20.4064 H   0  0  0  0  0  0  0  0  0  0  0  0
   78.2390   90.4523   22.4328 H   0  0  0  0  0  0  0  0  0  0  0  0
   75.8586   90.5857   19.8490 H   0  0  0  0  0  0  0  0  0  0  0  0
   76.3586   88.9119   19.7438 H   0  0  0  0  0  0  0  0  0  0  0  0
   76.3148   90.0827   17.5947 H   0  0  0  0  0  0  0  0  0  0  0  0
   79.7992   90.4156   18.3952 H   0  0  0  0  0  0  0  0  0  0  0  0
   79.9141   87.3716   18.0841 H   0  0  0  0  0  0  0  0  0  0  0  0
   81.1237   88.1548   19.0983 H   0  0  0  0  0  0  0  0  0  0  0  0
   81.6337   89.4960   17.3049 H   0  0  0  0  0  0  0  0  0  0  0  0
   77.8481   88.2547   17.9675 H   0  0  0  0  0  0  0  0  0  0  0  0
  1  2  1  0  0  0  0
  1 11  1  0  0  0  0
  2  3  1  0  0  0  0
  2  7  1  0  0  0  0
  2 12  1  1  0  0  0
  3  4  1  0  0  0  0
  3  5  1  0  0  0  0
  3 13  1  6  0  0  0
  4 14  1  0  0  0  0
  5  6  1  0  0  0  0
  5 15  1  0  0  0  0
  5 16  1  0  0  0  0
  6 10  1  0  0  0  0
  6 17  1  0  0  0  0
  7  8  1  0  0  0  0
  7 10  1  0  0  0  0
  7 18  1  6  0  0  0
  8  9  1  0  0  0  0
  8 19  1  0  0  0  0
  8 20  1  0  0  0  0
  9 21  1  0  0  0  0
 10 22  1  0  0  0  0
M  END
$$$$
