AGS
 OpenBabel04111919523D

 43 45  0  0  1  0  0  0  0  0999 V2000
   18.0417   52.9587  -12.1268 P   0  0  2  0  0  0  0  0  0  0  0  0
   16.2882   52.4538  -12.9888 S   0  0  0  0  0  0  0  0  0  0  0  0
   17.7529   53.4512  -10.7128 O   0  0  0  0  0  0  0  0  0  0  0  0
   18.7571   53.9601  -13.0320 O   0  0  0  0  0  0  0  0  0  0  0  0
   20.3880   51.2164  -11.5237 P   0  0  2  0  0  0  0  0  0  0  0  0
   20.7421   51.8587  -10.1975 O   0  0  0  0  0  0  0  0  0  0  0  0
   21.3926   51.3125  -12.6720 O   0  0  0  0  0  0  0  0  0  0  0  0
   18.9121   51.5979  -12.0420 O   0  0  0  0  0  0  0  0  0  0  0  0
   20.4631   48.7165  -10.0100 P   0  0  1  0  0  0  0  0  0  0  0  0
   21.9192   48.6767   -9.5779 O   0  0  0  0  0  0  0  0  0  0  0  0
   19.3597   48.7221   -8.9786 O   0  0  0  0  0  0  0  0  0  0  0  0
   20.1620   49.6287  -11.2891 O   0  0  0  0  0  0  0  0  0  0  0  0
   20.3282   47.2666  -10.7770 O   0  0  0  0  0  0  0  0  0  0  0  0
   19.2190   46.4424  -10.5035 C   0  0  0  0  0  0  0  0  0  0  0  0
   19.7127   45.0042  -10.3345 C   0  0  1  0  0  0  0  0  0  0  0  0
   20.2068   44.4855  -11.6013 O   0  0  0  0  0  0  0  0  0  0  0  0
   20.8475   44.8474   -9.3076 C   0  0  1  0  0  0  0  0  0  0  0  0
   20.4316   44.5131   -7.9752 O   0  0  0  0  0  0  0  0  0  0  0  0
   21.6258   43.6703   -9.8613 C   0  0  1  0  0  0  0  0  0  0  0  0
   21.0318   42.4342   -9.3858 O   0  0  0  0  0  0  0  0  0  0  0  0
   21.4725   43.8101  -11.3700 C   0  0  2  0  0  0  0  0  0  0  0  0
   22.5604   44.5011  -12.0200 N   0  3  0  0  0  0  0  0  0  0  0  0
   22.5253   45.6777  -12.7151 C   0  0  0  0  0  0  0  0  0  0  0  0
   23.6924   45.9600  -13.2675 N   0  0  0  0  0  0  0  0  0  0  0  0
   24.5363   44.9676  -12.8274 C   0  0  0  0  0  0  0  0  0  0  0  0
   25.9150   44.7583  -13.0376 C   0  0  0  0  0  0  0  0  0  0  0  0
   26.7102   45.6058  -13.8112 N   0  0  0  0  0  0  0  0  0  0  0  0
   26.4832   43.6600  -12.4903 N   0  0  0  0  0  0  0  0  0  0  0  0
   25.6878   42.8134  -11.7994 C   0  0  0  0  0  0  0  0  0  0  0  0
   24.3597   42.9020  -11.5522 N   0  0  0  0  0  0  0  0  0  0  0  0
   23.8579   44.0276  -12.0872 C   0  0  0  0  0  0  0  0  0  0  0  0
   18.5330   46.5258  -11.3504 H   0  0  0  0  0  0  0  0  0  0  0  0
   18.6814   46.7239   -9.5946 H   0  0  0  0  0  0  0  0  0  0  0  0
   18.8513   44.3816  -10.0594 H   0  0  0  0  0  0  0  0  0  0  0  0
   21.4950   45.7298   -9.2716 H   0  0  0  0  0  0  0  0  0  0  0  0
   19.6318   43.9689   -8.0566 H   0  0  0  0  0  0  0  0  0  0  0  0
   22.6594   43.6591   -9.5159 H   0  0  0  0  0  0  0  0  0  0  0  0
   21.1223   42.5050   -8.4143 H   0  0  0  0  0  0  0  0  0  0  0  0
   21.3802   42.8321  -11.8543 H   0  0  0  0  0  0  0  0  0  0  0  0
   21.6318   46.2903  -12.7912 H   0  0  0  0  0  0  0  0  0  0  0  0
   27.6939   45.5450  -13.5860 H   0  0  0  0  0  0  0  0  0  0  0  0
   26.2995   46.5357  -13.8939 H   0  0  0  0  0  0  0  0  0  0  0  0
   26.1788   41.9342  -11.3947 H   0  0  0  0  0  0  0  0  0  0  0  0
  1  2  1  6  0  0  0
  1  3  2  0  0  0  0
  1  4  1  0  0  0  0
  1  8  1  0  0  0  0
  5  6  2  1  0  0  0
  5  7  1  0  0  0  0
  5  8  1  0  0  0  0
  5 12  1  0  0  0  0
  9 10  2  1  0  0  0
  9 11  1  0  0  0  0
  9 12  1  0  0  0  0
  9 13  1  0  0  0  0
 13 14  1  0  0  0  0
 14 15  1  0  0  0  0
 14 32  1  0  0  0  0
 14 33  1  0  0  0  0
 15 16  1  0  0  0  0
 15 17  1  0  0  0  0
 15 34  1  1  0  0  0
 16 21  1  0  0  0  0
 17 18  1  0  0  0  0
 17 19  1  0  0  0  0
 17 35  1  1  0  0  0
 18 36  1  0  0  0  0
 19 20  1  0  0  0  0
 19 21  1  0  0  0  0
 19 37  1  1  0  0  0
 20 38  1  0  0  0  0
 21 22  1  0  0  0  0
 21 39  1  6  0  0  0
 22 23  2  0  0  0  0
 22 31  1  0  0  0  0
 23 24  1  0  0  0  0
 23 40  1  0  0  0  0
 24 25  1  0  0  0  0
 25 26  2  0  0  0  0
 25 31  1  0  0  0  0
 26 27  1  0  0  0  0
 26 28  1  0  0  0  0
 27 41  1  0  0  0  0
 27 42  1  0  0  0  0
 28 29  2  0  0  0  0
 29 30  1  0  0  0  0
 29 43  1  0  0  0  0
 30 31  2  0  0  0  0
M  CHG  1  22   1
M  END
$$$$
