ALX
 OpenBabel04111921383D

 27 27  0  0  1  0  0  0  0  0999 V2000
  -16.2880  -27.4753   17.1883 C   0  0  2  0  0  0  0  0  0  0  0  0
  -15.8573  -26.2756   16.5354 O   0  0  0  0  0  0  0  0  0  0  0  0
  -15.7376  -26.5729   19.3736 O   0  0  0  0  0  0  0  0  0  0  0  0
  -15.5763  -27.7264   18.5429 C   0  0  2  0  0  0  0  0  0  0  0  0
  -14.0824  -27.9958   18.2949 C   0  0  1  0  0  0  0  0  0  0  0  0
  -14.6583  -28.6878   15.9534 C   0  0  2  0  0  0  0  0  0  0  0  0
  -14.4915  -29.7343   14.8363 C   0  0  0  0  0  0  0  0  0  0  0  0
  -17.3440  -25.2502   20.6887 O   0  0  0  0  0  0  0  0  0  0  0  0
  -16.7565  -26.6475   20.6640 P   0  0  0  0  0  0  0  0  0  0  0  0
  -17.7433  -27.7582   20.2971 O   0  0  0  0  0  0  0  0  0  0  0  0
  -15.8042  -26.9582   21.8085 O   0  0  0  0  0  0  0  0  0  0  0  0
  -13.4530  -28.5267   19.4758 O   0  0  0  0  0  0  0  0  0  0  0  0
  -13.8705  -29.0626   17.2080 C   0  0  1  0  0  0  0  0  0  0  0  0
  -12.4762  -29.1585   16.8625 O   0  0  0  0  0  0  0  0  0  0  0  0
  -14.9753  -31.0406   15.1667 O   0  0  0  0  0  0  0  0  0  0  0  0
  -16.0614  -28.5400   16.2472 O   0  0  0  0  0  0  0  0  0  0  0  0
  -17.3697  -27.4140   17.3541 H   0  0  0  0  0  0  0  0  0  0  0  0
  -16.5345  -26.1237   15.8586 H   0  0  0  0  0  0  0  0  0  0  0  0
  -15.9966  -28.6258   18.9976 H   0  0  0  0  0  0  0  0  0  0  0  0
  -13.5581  -27.0713   18.0200 H   0  0  0  0  0  0  0  0  0  0  0  0
  -14.2614  -27.7665   15.5476 H   0  0  0  0  0  0  0  0  0  0  0  0
  -13.4387  -29.8320   14.5684 H   0  0  0  0  0  0  0  0  0  0  0  0
  -15.0510  -29.4026   13.9664 H   0  0  0  0  0  0  0  0  0  0  0  0
  -12.4978  -28.5246   19.3521 H   0  0  0  0  0  0  0  0  0  0  0  0
  -14.1724  -30.0359   17.5978 H   0  0  0  0  0  0  0  0  0  0  0  0
  -11.9991  -29.3495   17.6858 H   0  0  0  0  0  0  0  0  0  0  0  0
  -14.5192  -31.3329   15.9708 H   0  0  0  0  0  0  0  0  0  0  0  0
  1  2  1  0  0  0  0
  1  4  1  0  0  0  0
  1 16  1  0  0  0  0
  1 17  1  1  0  0  0
  2 18  1  0  0  0  0
  3  4  1  0  0  0  0
  3  9  1  0  0  0  0
  4  5  1  0  0  0  0
  4 19  1  1  0  0  0
  5 12  1  0  0  0  0
  5 13  1  0  0  0  0
  5 20  1  6  0  0  0
  6  7  1  0  0  0  0
  6 13  1  0  0  0  0
  6 16  1  0  0  0  0
  6 21  1  6  0  0  0
  7 15  1  0  0  0  0
  7 22  1  0  0  0  0
  7 23  1  0  0  0  0
  8  9  2  0  0  0  0
  9 10  1  0  0  0  0
  9 11  1  0  0  0  0
 12 24  1  0  0  0  0
 13 14  1  0  0  0  0
 13 25  1  1  0  0  0
 14 26  1  0  0  0  0
 15 27  1  0  0  0  0
M  END
$$$$
