AMG
 OpenBabel04111920343D

 27 27  0  0  1  0  0  0  0  0999 V2000
   11.9407   17.8826   13.2364 C   0  0  1  0  0  0  0  0  0  0  0  0
   11.6020   17.1093   14.5171 C   0  0  1  0  0  0  0  0  0  0  0  0
   12.7882   16.1957   14.8800 C   0  0  2  0  0  0  0  0  0  0  0  0
   13.1313   15.2941   13.6948 C   0  0  2  0  0  0  0  0  0  0  0  0
   13.3925   16.1540   12.4475 C   0  0  1  0  0  0  0  0  0  0  0  0
   13.6827   15.2651   11.2370 C   0  0  0  0  0  0  0  0  0  0  0  0
   13.1101   19.8365   12.5819 C   0  0  0  0  0  0  0  0  0  0  0  0
   13.0311   18.7747   13.5135 O   0  0  0  0  0  0  0  0  0  0  0  0
   11.3353   17.9963   15.6243 O   0  0  0  0  0  0  0  0  0  0  0  0
   12.4628   15.3608   16.0019 O   0  0  0  0  0  0  0  0  0  0  0  0
   12.0546   14.3728   13.4508 O   0  0  0  0  0  0  0  0  0  0  0  0
   12.2645   17.0051   12.1486 O   0  0  0  0  0  0  0  0  0  0  0  0
   13.9585   16.0741   10.0924 O   0  0  0  0  0  0  0  0  0  0  0  0
   11.0610   18.4729   12.9444 H   0  0  0  0  0  0  0  0  0  0  0  0
   10.7067   16.4974   14.3741 H   0  0  0  0  0  0  0  0  0  0  0  0
   13.6532   16.8106   15.1583 H   0  0  0  0  0  0  0  0  0  0  0  0
   14.0063   14.6804   13.9337 H   0  0  0  0  0  0  0  0  0  0  0  0
   14.2599   16.7992   12.6119 H   0  0  0  0  0  0  0  0  0  0  0  0
   12.8398   14.6148   10.9837 H   0  0  0  0  0  0  0  0  0  0  0  0
   14.5636   14.6420   11.4254 H   0  0  0  0  0  0  0  0  0  0  0  0
   13.9706   20.4606   12.8466 H   0  0  0  0  0  0  0  0  0  0  0  0
   12.2103   20.4559   12.6378 H   0  0  0  0  0  0  0  0  0  0  0  0
   13.2510   19.4614   11.5653 H   0  0  0  0  0  0  0  0  0  0  0  0
   10.6000   18.5736   15.3605 H   0  0  0  0  0  0  0  0  0  0  0  0
   13.3037   15.0109   16.3435 H   0  0  0  0  0  0  0  0  0  0  0  0
   11.8420   13.9606   14.3119 H   0  0  0  0  0  0  0  0  0  0  0  0
   13.1642   16.6326    9.9804 H   0  0  0  0  0  0  0  0  0  0  0  0
  1  2  1  0  0  0  0
  1  8  1  0  0  0  0
  1 12  1  0  0  0  0
  1 14  1  6  0  0  0
  2  3  1  0  0  0  0
  2  9  1  0  0  0  0
  2 15  1  6  0  0  0
  3  4  1  0  0  0  0
  3 10  1  0  0  0  0
  3 16  1  1  0  0  0
  4  5  1  0  0  0  0
  4 11  1  0  0  0  0
  4 17  1  1  0  0  0
  5  6  1  0  0  0  0
  5 12  1  0  0  0  0
  5 18  1  1  0  0  0
  6 13  1  0  0  0  0
  6 19  1  0  0  0  0
  6 20  1  0  0  0  0
  7  8  1  0  0  0  0
  7 21  1  0  0  0  0
  7 22  1  0  0  0  0
  7 23  1  0  0  0  0
  9 24  1  0  0  0  0
 10 25  1  0  0  0  0
 11 26  1  0  0  0  0
 13 27  1  0  0  0  0
M  END
$$$$
