AMP
 OpenBabel04111919003D

 35 37  0  0  1  0  0  0  0  0999 V2000
   25.4076   34.6248   38.2541 P   0  0  0  0  0  0  0  0  0  0  0  0
   25.9599   35.9884   38.6418 O   0  0  0  0  0  0  0  0  0  0  0  0
   25.7266   34.2074   36.8255 O   0  0  0  0  0  0  0  0  0  0  0  0
   23.9707   34.3808   38.6814 O   0  0  0  0  0  0  0  0  0  0  0  0
   26.2480   33.5652   39.1859 O   0  0  0  0  0  0  0  0  0  0  0  0
   27.6472   33.7267   39.3282 C   0  0  0  0  0  0  0  0  0  0  0  0
   28.2500   32.4310   39.9166 C   0  0  1  0  0  0  0  0  0  0  0  0
   27.7884   31.2243   39.2689 O   0  0  0  0  0  0  0  0  0  0  0  0
   29.7909   32.3643   39.8855 C   0  0  1  0  0  0  0  0  0  0  0  0
   30.3940   32.6802   41.1489 O   0  0  0  0  0  0  0  0  0  0  0  0
   30.1230   30.9233   39.4570 C   0  0  1  0  0  0  0  0  0  0  0  0
   31.1095   30.2867   40.2837 O   0  0  0  0  0  0  0  0  0  0  0  0
   28.7623   30.2166   39.4982 C   0  0  2  0  0  0  0  0  0  0  0  0
   28.5914   29.1389   38.5341 N   0  3  0  0  0  0  0  0  0  0  0  0
   28.1781   27.8483   38.7995 C   0  0  0  0  0  0  0  0  0  0  0  0
   28.1322   27.0930   37.7191 N   0  0  0  0  0  0  0  0  0  0  0  0
   28.4920   27.9544   36.6894 C   0  0  0  0  0  0  0  0  0  0  0  0
   28.6491   27.7534   35.2998 C   0  0  0  0  0  0  0  0  0  0  0  0
   28.4606   26.5257   34.6842 N   0  0  0  0  0  0  0  0  0  0  0  0
   29.0544   28.8012   34.5412 N   0  0  0  0  0  0  0  0  0  0  0  0
   29.2841   29.9760   35.1595 C   0  0  0  0  0  0  0  0  0  0  0  0
   29.2377   30.2533   36.4843 N   0  0  0  0  0  0  0  0  0  0  0  0
   28.8069   29.2064   37.1840 C   0  0  0  0  0  0  0  0  0  0  0  0
   27.8210   34.5437   40.0424 H   0  0  0  0  0  0  0  0  0  0  0  0
   28.1184   34.0042   38.3797 H   0  0  0  0  0  0  0  0  0  0  0  0
   27.9016   32.3566   40.9553 H   0  0  0  0  0  0  0  0  0  0  0  0
   30.2112   33.0626   39.1546 H   0  0  0  0  0  0  0  0  0  0  0  0
   30.0001   32.0878   41.8130 H   0  0  0  0  0  0  0  0  0  0  0  0
   30.5327   30.9415   38.4443 H   0  0  0  0  0  0  0  0  0  0  0  0
   31.9257   30.8075   40.1575 H   0  0  0  0  0  0  0  0  0  0  0  0
   28.5938   29.7755   40.4987 H   0  0  0  0  0  0  0  0  0  0  0  0
   27.9191   27.5067   39.7911 H   0  0  0  0  0  0  0  0  0  0  0  0
   28.4205   26.5340   33.6768 H   0  0  0  0  0  0  0  0  0  0  0  0
   28.0036   25.8102   35.2284 H   0  0  0  0  0  0  0  0  0  0  0  0
   29.5639   30.8116   34.5177 H   0  0  0  0  0  0  0  0  0  0  0  0
  1  2  2  0  0  0  0
  1  3  1  0  0  0  0
  1  4  1  0  0  0  0
  1  5  1  0  0  0  0
  5  6  1  0  0  0  0
  6  7  1  0  0  0  0
  6 24  1  0  0  0  0
  6 25  1  0  0  0  0
  7  8  1  0  0  0  0
  7  9  1  0  0  0  0
  7 26  1  1  0  0  0
  8 13  1  0  0  0  0
  9 10  1  0  0  0  0
  9 11  1  0  0  0  0
  9 27  1  6  0  0  0
 10 28  1  0  0  0  0
 11 12  1  0  0  0  0
 11 13  1  0  0  0  0
 11 29  1  6  0  0  0
 12 30  1  0  0  0  0
 13 14  1  0  0  0  0
 13 31  1  1  0  0  0
 14 15  2  0  0  0  0
 14 23  1  0  0  0  0
 15 16  1  0  0  0  0
 15 32  1  0  0  0  0
 16 17  1  0  0  0  0
 17 18  2  0  0  0  0
 17 23  1  0  0  0  0
 18 19  1  0  0  0  0
 18 20  1  0  0  0  0
 19 33  1  0  0  0  0
 19 34  1  0  0  0  0
 20 21  2  0  0  0  0
 21 22  1  0  0  0  0
 21 35  1  0  0  0  0
 22 23  2  0  0  0  0
M  CHG  1  14   1
M  END
$$$$
