ANP
 OpenBabel04111918543D

 44 46  0  0  1  0  0  0  0  0999 V2000
  -33.6003   -9.4792   -6.1723 P   0  0  0  0  0  0  0  0  0  0  0  0
  -34.4589   -8.8523   -5.0844 O   0  0  0  0  0  0  0  0  0  0  0  0
  -32.7819   -8.4971   -6.9923 O   0  0  0  0  0  0  0  0  0  0  0  0
  -34.4121  -10.4602   -7.0190 O   0  0  0  0  0  0  0  0  0  0  0  0
  -30.9085  -10.3990   -5.0795 P   0  0  1  0  0  0  0  0  0  0  0  0
  -30.5532   -9.2803   -4.1279 O   0  0  0  0  0  0  0  0  0  0  0  0
  -30.5766  -11.8034   -4.5459 O   0  0  0  0  0  0  0  0  0  0  0  0
  -32.5774  -10.5132   -5.3260 N   0  0  0  0  0  0  0  0  0  0  0  0
  -28.9997   -9.4791   -7.1815 P   0  0  1  0  0  0  0  0  0  0  0  0
  -28.9328   -9.7486   -8.6822 O   0  0  0  0  0  0  0  0  0  0  0  0
  -28.7680   -8.0618   -6.6969 O   0  0  0  0  0  0  0  0  0  0  0  0
  -30.2016  -10.2947   -6.5134 O   0  0  0  0  0  0  0  0  0  0  0  0
  -27.6890  -10.2556   -6.6065 O   0  0  0  0  0  0  0  0  0  0  0  0
  -27.5029  -11.6225   -6.8658 C   0  0  0  0  0  0  0  0  0  0  0  0
  -26.0936  -11.9626   -6.3619 C   0  0  1  0  0  0  0  0  0  0  0  0
  -25.0663  -11.2181   -7.0831 O   0  0  0  0  0  0  0  0  0  0  0  0
  -25.9033  -11.6164   -4.8754 C   0  0  1  0  0  0  0  0  0  0  0  0
  -26.3466  -12.6149   -3.9735 O   0  0  0  0  0  0  0  0  0  0  0  0
  -24.3895  -11.5032   -4.7972 C   0  0  1  0  0  0  0  0  0  0  0  0
  -23.7988  -12.8148   -4.6789 O   0  0  0  0  0  0  0  0  0  0  0  0
  -24.0286  -10.8812   -6.1427 C   0  0  2  0  0  0  0  0  0  0  0  0
  -23.7654   -9.4578   -6.0745 N   0  3  0  0  0  0  0  0  0  0  0  0
  -24.6407   -8.4109   -6.3174 C   0  0  0  0  0  0  0  0  0  0  0  0
  -24.0320   -7.2539   -6.1937 N   0  0  0  0  0  0  0  0  0  0  0  0
  -22.7430   -7.5245   -5.8245 C   0  0  0  0  0  0  0  0  0  0  0  0
  -21.6373   -6.7076   -5.5327 C   0  0  0  0  0  0  0  0  0  0  0  0
  -21.6632   -5.3248   -5.6454 N   0  0  0  0  0  0  0  0  0  0  0  0
  -20.4768   -7.2927   -5.1548 N   0  0  0  0  0  0  0  0  0  0  0  0
  -20.4407   -8.6416   -5.1054 C   0  0  0  0  0  0  0  0  0  0  0  0
  -21.4163   -9.5399   -5.3760 N   0  0  0  0  0  0  0  0  0  0  0  0
  -22.5583   -8.9072   -5.7289 C   0  0  0  0  0  0  0  0  0  0  0  0
  -32.9784  -11.4247   -5.2491 H   0  0  0  0  0  0  0  0  0  0  0  0
  -27.5790  -11.8428   -7.9377 H   0  0  0  0  0  0  0  0  0  0  0  0
  -28.2497  -12.2023   -6.3201 H   0  0  0  0  0  0  0  0  0  0  0  0
  -25.9067  -13.0297   -6.5410 H   0  0  0  0  0  0  0  0  0  0  0  0
  -26.3561  -10.6572   -4.6233 H   0  0  0  0  0  0  0  0  0  0  0  0
  -25.9194  -13.4418   -4.2353 H   0  0  0  0  0  0  0  0  0  0  0  0
  -24.0614  -10.9248   -3.9207 H   0  0  0  0  0  0  0  0  0  0  0  0
  -22.8453  -12.6676   -4.5844 H   0  0  0  0  0  0  0  0  0  0  0  0
  -23.1045  -11.3349   -6.5449 H   0  0  0  0  0  0  0  0  0  0  0  0
  -25.6750   -8.5609   -6.5923 H   0  0  0  0  0  0  0  0  0  0  0  0
  -20.9292   -4.8293   -5.1653 H   0  0  0  0  0  0  0  0  0  0  0  0
  -22.5982   -4.9240   -5.7024 H   0  0  0  0  0  0  0  0  0  0  0  0
  -19.4854   -9.0671   -4.8071 H   0  0  0  0  0  0  0  0  0  0  0  0
  1  2  2  0  0  0  0
  1  3  1  0  0  0  0
  1  4  1  0  0  0  0
  1  8  1  0  0  0  0
  5  6  2  1  0  0  0
  5  7  1  0  0  0  0
  5  8  1  0  0  0  0
  5 12  1  0  0  0  0
  8 32  1  0  0  0  0
  9 10  2  6  0  0  0
  9 11  1  0  0  0  0
  9 12  1  0  0  0  0
  9 13  1  0  0  0  0
 13 14  1  0  0  0  0
 14 15  1  0  0  0  0
 14 33  1  0  0  0  0
 14 34  1  0  0  0  0
 15 16  1  0  0  0  0
 15 17  1  0  0  0  0
 15 35  1  6  0  0  0
 16 21  1  0  0  0  0
 17 18  1  0  0  0  0
 17 19  1  0  0  0  0
 17 36  1  1  0  0  0
 18 37  1  0  0  0  0
 19 20  1  0  0  0  0
 19 21  1  0  0  0  0
 19 38  1  1  0  0  0
 20 39  1  0  0  0  0
 21 22  1  0  0  0  0
 21 40  1  6  0  0  0
 22 23  2  0  0  0  0
 22 31  1  0  0  0  0
 23 24  1  0  0  0  0
 23 41  1  0  0  0  0
 24 25  1  0  0  0  0
 25 26  2  0  0  0  0
 25 31  1  0  0  0  0
 26 27  1  0  0  0  0
 26 28  1  0  0  0  0
 27 42  1  0  0  0  0
 27 43  1  0  0  0  0
 28 29  2  0  0  0  0
 29 30  1  0  0  0  0
 29 44  1  0  0  0  0
 30 31  2  0  0  0  0
M  CHG  1  22   1
M  END
$$$$
