ANP
 OpenBabel04111917493D

 44 46  0  0  1  0  0  0  0  0999 V2000
  -22.0568    0.0908  -25.3628 P   0  0  0  0  0  0  0  0  0  0  0  0
  -22.9721   -1.0788  -25.0364 O   0  0  0  0  0  0  0  0  0  0  0  0
  -22.8377    1.2845  -25.9246 O   0  0  0  0  0  0  0  0  0  0  0  0
  -20.8395   -0.2452  -26.2051 O   0  0  0  0  0  0  0  0  0  0  0  0
  -20.3500    0.1635  -22.8346 P   0  0  1  0  0  0  0  0  0  0  0  0
  -20.1089   -1.3345  -22.8258 O   0  0  0  0  0  0  0  0  0  0  0  0
  -19.1086    1.0451  -22.9073 O   0  0  0  0  0  0  0  0  0  0  0  0
  -21.5222    0.7065  -23.8906 N   0  0  0  0  0  0  0  0  0  0  0  0
  -21.6933    1.7832  -20.7918 P   0  0  2  0  0  0  0  0  0  0  0  0
  -23.0888    2.0837  -21.3024 O   0  0  0  0  0  0  0  0  0  0  0  0
  -20.7321    2.9270  -20.5428 O   0  0  0  0  0  0  0  0  0  0  0  0
  -21.0293    0.4611  -21.3949 O   0  0  0  0  0  0  0  0  0  0  0  0
  -21.9731    1.2358  -19.2695 O   0  0  0  0  0  0  0  0  0  0  0  0
  -22.9272    0.2125  -19.0723 C   0  0  0  0  0  0  0  0  0  0  0  0
  -23.9356    0.6483  -17.9953 C   0  0  1  0  0  0  0  0  0  0  0  0
  -23.2297    0.9938  -16.7699 O   0  0  0  0  0  0  0  0  0  0  0  0
  -24.7794    1.8688  -18.3742 C   0  0  1  0  0  0  0  0  0  0  0  0
  -26.0550    1.5516  -18.9435 O   0  0  0  0  0  0  0  0  0  0  0  0
  -25.0304    2.5592  -17.0408 C   0  0  1  0  0  0  0  0  0  0  0  0
  -26.2538    2.0785  -16.4156 O   0  0  0  0  0  0  0  0  0  0  0  0
  -23.8261    2.1733  -16.2132 C   0  0  2  0  0  0  0  0  0  0  0  0
  -22.8557    3.2509  -16.1171 N   0  3  0  0  0  0  0  0  0  0  0  0
  -21.8892    3.6279  -17.0201 C   0  0  0  0  0  0  0  0  0  0  0  0
  -21.2296    4.6980  -16.6141 N   0  0  0  0  0  0  0  0  0  0  0  0
  -21.7862    5.0567  -15.4307 C   0  0  0  0  0  0  0  0  0  0  0  0
  -21.5330    6.1008  -14.5311 C   0  0  0  0  0  0  0  0  0  0  0  0
  -20.5301    7.0293  -14.7345 N   0  0  0  0  0  0  0  0  0  0  0  0
  -22.2934    6.2138  -13.4214 N   0  0  0  0  0  0  0  0  0  0  0  0
  -23.2625    5.2923  -13.2308 C   0  0  0  0  0  0  0  0  0  0  0  0
  -23.5933    4.2397  -14.0023 N   0  0  0  0  0  0  0  0  0  0  0  0
  -22.8196    4.1700  -15.0967 C   0  0  0  0  0  0  0  0  0  0  0  0
  -22.0007    1.5649  -23.6730 H   0  0  0  0  0  0  0  0  0  0  0  0
  -22.3641   -0.6538  -18.7110 H   0  0  0  0  0  0  0  0  0  0  0  0
  -23.4398   -0.0697  -19.9970 H   0  0  0  0  0  0  0  0  0  0  0  0
  -24.5879   -0.2048  -17.7699 H   0  0  0  0  0  0  0  0  0  0  0  0
  -24.2194    2.5404  -19.0326 H   0  0  0  0  0  0  0  0  0  0  0  0
  -26.2348    2.2721  -19.5789 H   0  0  0  0  0  0  0  0  0  0  0  0
  -25.1802    3.6331  -17.1627 H   0  0  0  0  0  0  0  0  0  0  0  0
  -26.9028    2.0437  -17.1466 H   0  0  0  0  0  0  0  0  0  0  0  0
  -24.1200    1.9232  -15.1925 H   0  0  0  0  0  0  0  0  0  0  0  0
  -21.7091    3.1036  -17.9537 H   0  0  0  0  0  0  0  0  0  0  0  0
  -20.4450    7.7963  -14.0943 H   0  0  0  0  0  0  0  0  0  0  0  0
  -20.0257    6.9811  -15.6124 H   0  0  0  0  0  0  0  0  0  0  0  0
  -23.8505    5.4199  -12.3261 H   0  0  0  0  0  0  0  0  0  0  0  0
  1  2  2  0  0  0  0
  1  3  1  0  0  0  0
  1  4  1  0  0  0  0
  1  8  1  0  0  0  0
  5  6  2  6  0  0  0
  5  7  1  0  0  0  0
  5  8  1  0  0  0  0
  5 12  1  0  0  0  0
  8 32  1  0  0  0  0
  9 10  2  6  0  0  0
  9 11  1  0  0  0  0
  9 12  1  0  0  0  0
  9 13  1  0  0  0  0
 13 14  1  0  0  0  0
 14 15  1  0  0  0  0
 14 33  1  0  0  0  0
 14 34  1  0  0  0  0
 15 16  1  0  0  0  0
 15 17  1  0  0  0  0
 15 35  1  1  0  0  0
 16 21  1  0  0  0  0
 17 18  1  0  0  0  0
 17 19  1  0  0  0  0
 17 36  1  6  0  0  0
 18 37  1  0  0  0  0
 19 20  1  0  0  0  0
 19 21  1  0  0  0  0
 19 38  1  6  0  0  0
 20 39  1  0  0  0  0
 21 22  1  0  0  0  0
 21 40  1  1  0  0  0
 22 23  2  0  0  0  0
 22 31  1  0  0  0  0
 23 24  1  0  0  0  0
 23 41  1  0  0  0  0
 24 25  1  0  0  0  0
 25 26  2  0  0  0  0
 25 31  1  0  0  0  0
 26 27  1  0  0  0  0
 26 28  1  0  0  0  0
 27 42  1  0  0  0  0
 27 43  1  0  0  0  0
 28 29  2  0  0  0  0
 29 30  1  0  0  0  0
 29 44  1  0  0  0  0
 30 31  2  0  0  0  0
M  CHG  1  22   1
M  END
$$$$
