ASP
 OpenBabel04111920453D

 15 14  0  0  1  0  0  0  0  0999 V2000
  -13.6058    2.6461  -16.2225 N   0  3  0  0  0  0  0  0  0  0  0  0
  -14.5681    1.4726  -16.4437 C   0  0  2  0  0  0  0  0  0  0  0  0
  -14.8187    1.2427  -17.9716 C   0  0  0  0  0  0  0  0  0  0  0  0
  -13.9398    1.8279  -18.6975 O   0  0  0  0  0  0  0  0  0  0  0  0
  -15.8483    1.7054  -15.6595 C   0  0  0  0  0  0  0  0  0  0  0  0
  -16.1653    0.4666  -14.7879 C   0  0  0  0  0  0  0  0  0  0  0  0
  -16.8443   -0.4414  -15.3323 O   0  0  0  0  0  0  0  0  0  0  0  0
  -15.7010    0.5081  -13.6090 O   0  0  0  0  0  0  0  0  0  0  0  0
  -15.8014    0.5941  -18.2959 O   0  0  0  0  0  0  0  0  0  0  0  0
  -13.4396    2.7799  -15.2285 H   0  0  0  0  0  0  0  0  0  0  0  0
  -12.7414    2.4322  -16.7317 H   0  0  0  0  0  0  0  0  0  0  0  0
  -14.0331    0.6042  -16.0539 H   0  0  0  0  0  0  0  0  0  0  0  0
  -16.6752    1.8669  -16.3591 H   0  0  0  0  0  0  0  0  0  0  0  0
  -15.7697    2.5964  -15.0218 H   0  0  0  0  0  0  0  0  0  0  0  0
  -14.0096    3.4767  -16.6637 H   0  0  0  0  0  0  0  0  0  0  0  0
  1  2  1  0  0  0  0
  1 10  1  0  0  0  0
  1 11  1  0  0  0  0
  1 15  1  0  0  0  0
  2  3  1  0  0  0  0
  2  5  1  0  0  0  0
  2 12  1  1  0  0  0
  3  4  2  0  0  0  0
  3  9  1  0  0  0  0
  5  6  1  0  0  0  0
  5 13  1  0  0  0  0
  5 14  1  0  0  0  0
  6  7  2  0  0  0  0
  6  8  1  0  0  0  0
M  CHG  1   1   1
M  END
$$$$
