ATP
 OpenBabel04111919403D

 43 45  0  0  1  0  0  0  0  0999 V2000
   12.9964   76.4110   28.1936 P   0  0  0  0  0  0  0  0  0  0  0  0
   12.2794   76.9379   26.9458 O   0  0  0  0  0  0  0  0  0  0  0  0
   12.7544   77.3408   29.3966 O   0  0  0  0  0  0  0  0  0  0  0  0
   12.6523   74.9684   28.5333 O   0  0  0  0  0  0  0  0  0  0  0  0
   15.7447   75.6460   27.2555 P   0  0  1  0  0  0  0  0  0  0  0  0
   15.4003   74.1846   27.0508 O   0  0  0  0  0  0  0  0  0  0  0  0
   16.3444   76.4107   26.0692 O   0  0  0  0  0  0  0  0  0  0  0  0
   14.5782   76.5339   27.9151 O   0  0  0  0  0  0  0  0  0  0  0  0
   18.0647   74.8341   28.7826 P   0  0  2  0  0  0  0  0  0  0  0  0
   19.1258   74.7981   27.6883 O   0  0  0  0  0  0  0  0  0  0  0  0
   17.7129   73.5690   29.5451 O   0  0  0  0  0  0  0  0  0  0  0  0
   16.8235   75.7744   28.4549 O   0  0  0  0  0  0  0  0  0  0  0  0
   18.7636   75.7563   29.9446 O   0  0  0  0  0  0  0  0  0  0  0  0
   19.2734   77.0219   29.5849 C   0  0  0  0  0  0  0  0  0  0  0  0
   19.4226   77.8216   30.8792 C   0  0  1  0  0  0  0  0  0  0  0  0
   20.2586   77.0706   31.8170 O   0  0  0  0  0  0  0  0  0  0  0  0
   20.0921   79.1896   30.6869 C   0  0  1  0  0  0  0  0  0  0  0  0
   19.4212   80.1667   31.5002 O   0  0  0  0  0  0  0  0  0  0  0  0
   21.5055   78.9759   31.2251 C   0  0  1  0  0  0  0  0  0  0  0  0
   22.1260   80.1744   31.7159 O   0  0  0  0  0  0  0  0  0  0  0  0
   21.2540   77.9562   32.3298 C   0  0  2  0  0  0  0  0  0  0  0  0
   22.4081   77.1982   32.7204 N   0  3  0  0  0  0  0  0  0  0  0  0
   23.2200   76.4372   31.9121 C   0  0  0  0  0  0  0  0  0  0  0  0
   24.2378   75.9140   32.5811 N   0  0  0  0  0  0  0  0  0  0  0  0
   24.0207   76.2825   33.8973 C   0  0  0  0  0  0  0  0  0  0  0  0
   24.7205   76.0182   35.0948 C   0  0  0  0  0  0  0  0  0  0  0  0
   25.8857   75.2753   35.1481 N   0  0  0  0  0  0  0  0  0  0  0  0
   24.2535   76.5523   36.2503 N   0  0  0  0  0  0  0  0  0  0  0  0
   23.1434   77.3230   36.1899 C   0  0  0  0  0  0  0  0  0  0  0  0
   22.4171   77.6623   35.1115 N   0  0  0  0  0  0  0  0  0  0  0  0
   22.9106   77.0899   33.9979 C   0  0  0  0  0  0  0  0  0  0  0  0
   18.5959   77.5391   28.8981 H   0  0  0  0  0  0  0  0  0  0  0  0
   20.2457   76.8904   29.0987 H   0  0  0  0  0  0  0  0  0  0  0  0
   18.4385   77.9297   31.3513 H   0  0  0  0  0  0  0  0  0  0  0  0
   20.0817   79.5485   29.6525 H   0  0  0  0  0  0  0  0  0  0  0  0
   19.8516   81.0220   31.3581 H   0  0  0  0  0  0  0  0  0  0  0  0
   22.1438   78.5570   30.4405 H   0  0  0  0  0  0  0  0  0  0  0  0
   22.2045   80.7847   30.9653 H   0  0  0  0  0  0  0  0  0  0  0  0
   20.8500   78.4538   33.2224 H   0  0  0  0  0  0  0  0  0  0  0  0
   23.0384   76.3172   30.8571 H   0  0  0  0  0  0  0  0  0  0  0  0
   26.2444   75.0329   36.0560 H   0  0  0  0  0  0  0  0  0  0  0  0
   26.1398   74.7668   34.3109 H   0  0  0  0  0  0  0  0  0  0  0  0
   22.7978   77.7364   37.1297 H   0  0  0  0  0  0  0  0  0  0  0  0
  1  2  2  0  0  0  0
  1  3  1  0  0  0  0
  1  4  1  0  0  0  0
  1  8  1  0  0  0  0
  5  6  2  6  0  0  0
  5  7  1  0  0  0  0
  5  8  1  0  0  0  0
  5 12  1  0  0  0  0
  9 10  2  6  0  0  0
  9 11  1  0  0  0  0
  9 12  1  0  0  0  0
  9 13  1  0  0  0  0
 13 14  1  0  0  0  0
 14 15  1  0  0  0  0
 14 32  1  0  0  0  0
 14 33  1  0  0  0  0
 15 16  1  0  0  0  0
 15 17  1  0  0  0  0
 15 34  1  1  0  0  0
 16 21  1  0  0  0  0
 17 18  1  0  0  0  0
 17 19  1  0  0  0  0
 17 35  1  6  0  0  0
 18 36  1  0  0  0  0
 19 20  1  0  0  0  0
 19 21  1  0  0  0  0
 19 37  1  6  0  0  0
 20 38  1  0  0  0  0
 21 22  1  0  0  0  0
 21 39  1  1  0  0  0
 22 23  2  0  0  0  0
 22 31  1  0  0  0  0
 23 24  1  0  0  0  0
 23 40  1  0  0  0  0
 24 25  1  0  0  0  0
 25 26  2  0  0  0  0
 25 31  1  0  0  0  0
 26 27  1  0  0  0  0
 26 28  1  0  0  0  0
 27 41  1  0  0  0  0
 27 42  1  0  0  0  0
 28 29  2  0  0  0  0
 29 30  1  0  0  0  0
 29 43  1  0  0  0  0
 30 31  2  0  0  0  0
M  CHG  1  22   1
M  END
$$$$
