AXI
 OpenBabel04111917413D

 46 49  0  0  0  0  0  0  0  0999 V2000
   24.8387   23.4714   35.8011 O   0  0  0  0  0  0  0  0  0  0  0  0
   25.4710   22.8255   36.5994 C   0  0  0  0  0  0  0  0  0  0  0  0
   26.4301   21.9140   36.1882 N   0  0  0  0  0  0  0  0  0  0  0  0
   26.7774   21.7263   34.7881 C   0  0  0  0  0  0  0  0  0  0  0  0
   25.2967   23.0247   38.0907 C   0  0  0  0  0  0  0  0  0  0  0  0
   26.4526   22.9918   38.8932 C   0  0  0  0  0  0  0  0  0  0  0  0
   26.3911   23.2012   40.2771 C   0  0  0  0  0  0  0  0  0  0  0  0
   25.1579   23.4588   40.8727 C   0  0  0  0  0  0  0  0  0  0  0  0
   24.0448   23.3020   38.6878 C   0  0  0  0  0  0  0  0  0  0  0  0
   23.9957   23.4885   40.0881 C   0  0  0  0  0  0  0  0  0  0  0  0
   22.4984   23.3180   37.7621 S   0  0  0  0  0  0  0  0  0  0  0  0
   21.4783   24.5674   38.5441 C   0  0  0  0  0  0  0  0  0  0  0  0
   20.1268   24.2773   38.8020 C   0  0  0  0  0  0  0  0  0  0  0  0
   19.2855   25.2409   39.3876 C   0  0  0  0  0  0  0  0  0  0  0  0
   22.0205   25.8199   38.8585 C   0  0  0  0  0  0  0  0  0  0  0  0
   21.1729   26.7534   39.4423 C   0  0  0  0  0  0  0  0  0  0  0  0
   21.4275   28.0329   39.8433 N   0  3  0  0  0  0  0  0  0  0  0  0
   20.3380   28.6630   40.3330 N   0  0  0  0  0  0  0  0  0  0  0  0
   19.3444   27.7491   40.2733 C   0  0  0  0  0  0  0  0  0  0  0  0
   19.8206   26.5134   39.7145 C   0  0  0  0  0  0  0  0  0  0  0  0
   18.0080   28.1106   40.7098 C   0  0  0  0  0  0  0  0  0  0  0  0
   16.8976   27.3473   40.8095 C   0  0  0  0  0  0  0  0  0  0  0  0
   15.5579   27.8279   41.2702 C   0  0  0  0  0  0  0  0  0  0  0  0
   14.5772   26.8749   41.3343 N   0  0  0  0  0  0  0  0  0  0  0  0
   13.3323   27.2529   41.7472 C   0  0  0  0  0  0  0  0  0  0  0  0
   13.0099   28.5482   42.1018 C   0  0  0  0  0  0  0  0  0  0  0  0
   14.0109   29.5195   42.0368 C   0  0  0  0  0  0  0  0  0  0  0  0
   15.2985   29.1567   41.6153 C   0  0  0  0  0  0  0  0  0  0  0  0
   26.8824   21.3345   36.8754 H   0  0  0  0  0  0  0  0  0  0  0  0
   27.5434   20.9485   34.7118 H   0  0  0  0  0  0  0  0  0  0  0  0
   27.1739   22.6645   34.3832 H   0  0  0  0  0  0  0  0  0  0  0  0
   25.8955   21.4300   34.2145 H   0  0  0  0  0  0  0  0  0  0  0  0
   27.4217   22.8125   38.4311 H   0  0  0  0  0  0  0  0  0  0  0  0
   27.2996   23.1585   40.8829 H   0  0  0  0  0  0  0  0  0  0  0  0
   25.0916   23.6363   41.9465 H   0  0  0  0  0  0  0  0  0  0  0  0
   23.0381   23.6645   40.5820 H   0  0  0  0  0  0  0  0  0  0  0  0
   19.7259   23.2929   38.5493 H   0  0  0  0  0  0  0  0  0  0  0  0
   18.2383   25.0191   39.5775 H   0  0  0  0  0  0  0  0  0  0  0  0
   23.0598   26.0641   38.6636 H   0  0  0  0  0  0  0  0  0  0  0  0
   22.3148   28.5485   39.8075 H   0  0  0  0  0  0  0  0  0  0  0  0
   17.9122   29.1583   40.9903 H   0  0  0  0  0  0  0  0  0  0  0  0
   16.9492   26.2981   40.5455 H   0  0  0  0  0  0  0  0  0  0  0  0
   12.5743   26.4614   41.7887 H   0  0  0  0  0  0  0  0  0  0  0  0
   12.0036   28.7997   42.4213 H   0  0  0  0  0  0  0  0  0  0  0  0
   13.7828   30.5468   42.3134 H   0  0  0  0  0  0  0  0  0  0  0  0
   16.0778   29.9183   41.5621 H   0  0  0  0  0  0  0  0  0  0  0  0
  1  2  2  0  0  0  0
  2  3  1  0  0  0  0
  2  5  1  0  0  0  0
  3  4  1  0  0  0  0
  3 29  1  0  0  0  0
  4 30  1  0  0  0  0
  4 31  1  0  0  0  0
  4 32  1  0  0  0  0
  5  6  2  0  0  0  0
  5  9  1  0  0  0  0
  6  7  1  0  0  0  0
  6 33  1  0  0  0  0
  7  8  2  0  0  0  0
  7 34  1  0  0  0  0
  8 10  1  0  0  0  0
  8 35  1  0  0  0  0
  9 10  2  0  0  0  0
  9 11  1  0  0  0  0
 10 36  1  0  0  0  0
 11 12  1  0  0  0  0
 12 13  1  0  0  0  0
 12 15  2  0  0  0  0
 13 14  2  0  0  0  0
 13 37  1  0  0  0  0
 14 20  1  0  0  0  0
 14 38  1  0  0  0  0
 15 16  1  0  0  0  0
 15 39  1  0  0  0  0
 16 17  2  0  0  0  0
 16 20  1  0  0  0  0
 17 18  1  0  0  0  0
 17 40  1  0  0  0  0
 18 19  1  0  0  0  0
 19 20  2  0  0  0  0
 19 21  1  0  0  0  0
 21 22  2  0  0  0  0
 21 41  1  0  0  0  0
 22 23  1  0  0  0  0
 22 42  1  0  0  0  0
 23 24  2  0  0  0  0
 23 28  1  0  0  0  0
 24 25  1  0  0  0  0
 25 26  2  0  0  0  0
 25 43  1  0  0  0  0
 26 27  1  0  0  0  0
 26 44  1  0  0  0  0
 27 28  2  0  0  0  0
 27 45  1  0  0  0  0
 28 46  1  0  0  0  0
M  CHG  1  17   1
M  END
$$$$
