BAX
 OpenBabel04111917463D

 48 50  0  0  0  0  0  0  0  0999 V2000
  -28.0515   -1.7991   -7.5958 C   0  0  0  0  0  0  0  0  0  0  0  0
  -28.2840   -2.8521   -8.4872 C   0  0  0  0  0  0  0  0  0  0  0  0
  -29.0035   -3.9678   -8.0606 C   0  0  0  0  0  0  0  0  0  0  0  0
  -29.4650   -4.0354   -6.7411 C   0  0  0  0  0  0  0  0  0  0  0  0
  -26.7492   -2.0839  -10.2599 C   0  0  0  0  0  0  0  0  0  0  0  0
  -25.3468   -1.7520  -12.2494 C   0  0  0  0  0  0  0  0  0  0  0  0
  -25.4615   -1.3571  -13.5813 C   0  0  0  0  0  0  0  0  0  0  0  0
  -24.3438   -0.8750  -14.2611 C   0  0  0  0  0  0  0  0  0  0  0  0
  -23.1143   -0.7903  -13.6069 C   0  0  0  0  0  0  0  0  0  0  0  0
  -22.9681   -1.2310  -12.2936 C   0  0  0  0  0  0  0  0  0  0  0  0
  -24.0969   -1.6935  -11.6116 C   0  0  0  0  0  0  0  0  0  0  0  0
  -22.0148   -0.3803  -14.3045 O   0  0  0  0  0  0  0  0  0  0  0  0
  -22.5256    2.0307  -13.9943 C   0  0  0  0  0  0  0  0  0  0  0  0
  -21.9873    3.3090  -14.1186 C   0  0  0  0  0  0  0  0  0  0  0  0
  -19.9476    2.4956  -14.8619 C   0  0  0  0  0  0  0  0  0  0  0  0
  -20.4039    1.1934  -14.7761 C   0  0  0  0  0  0  0  0  0  0  0  0
  -18.0280    3.9853  -15.4046 N   0  0  0  0  0  0  0  0  0  0  0  0
  -16.6820    4.2375  -15.8713 C   0  0  0  0  0  0  0  0  0  0  0  0
  -29.2321   -2.9715   -5.8606 C   0  0  0  0  0  0  0  0  0  0  0  0
  -28.5274   -1.8356   -6.2767 C   0  0  0  0  0  0  0  0  0  0  0  0
  -28.2363   -0.6835   -5.3508 C   0  0  0  0  0  0  0  0  0  0  0  0
  -27.4627   -1.0513   -4.2913 F   0  0  0  0  0  0  0  0  0  0  0  0
  -29.3589   -0.1105   -4.8307 F   0  0  0  0  0  0  0  0  0  0  0  0
  -27.5603    0.3448   -5.9455 F   0  0  0  0  0  0  0  0  0  0  0  0
  -29.8448   -3.1100   -4.2540 Cl  0  0  0  0  0  0  0  0  0  0  0  0
  -27.8325   -2.8093   -9.8220 N   0  0  0  0  0  0  0  0  0  0  0  0
  -26.4939   -2.2461  -11.5970 N   0  0  0  0  0  0  0  0  0  0  0  0
  -26.0496   -1.3726   -9.5243 O   0  0  0  0  0  0  0  0  0  0  0  0
  -21.7015    0.9568  -14.3295 C   0  0  0  0  0  0  0  0  0  0  0  0
  -20.7189    3.5808  -14.5409 N   0  0  0  0  0  0  0  0  0  0  0  0
  -18.5340    2.6971  -15.3521 C   0  0  0  0  0  0  0  0  0  0  0  0
  -17.8668    1.7237  -15.6899 O   0  0  0  0  0  0  0  0  0  0  0  0
  -27.5148   -0.9108   -7.9249 H   0  0  0  0  0  0  0  0  0  0  0  0
  -29.1740   -4.8030   -8.7356 H   0  0  0  0  0  0  0  0  0  0  0  0
  -30.0064   -4.9219   -6.4064 H   0  0  0  0  0  0  0  0  0  0  0  0
  -26.4273   -1.3752  -14.0793 H   0  0  0  0  0  0  0  0  0  0  0  0
  -24.4273   -0.5519  -15.2946 H   0  0  0  0  0  0  0  0  0  0  0  0
  -22.0007   -1.1952  -11.7986 H   0  0  0  0  0  0  0  0  0  0  0  0
  -23.9865   -2.0274  -10.5824 H   0  0  0  0  0  0  0  0  0  0  0  0
  -23.5487    1.8994  -13.6474 H   0  0  0  0  0  0  0  0  0  0  0  0
  -22.5929    4.1822  -13.8596 H   0  0  0  0  0  0  0  0  0  0  0  0
  -19.7632    0.3550  -15.0471 H   0  0  0  0  0  0  0  0  0  0  0  0
  -18.6260    4.7538  -15.1183 H   0  0  0  0  0  0  0  0  0  0  0  0
  -16.4839    5.3158  -15.8438 H   0  0  0  0  0  0  0  0  0  0  0  0
  -16.5739    3.8757  -16.8964 H   0  0  0  0  0  0  0  0  0  0  0  0
  -15.9674    3.7212  -15.2269 H   0  0  0  0  0  0  0  0  0  0  0  0
  -28.2941   -3.4168  -10.4842 H   0  0  0  0  0  0  0  0  0  0  0  0
  -27.2113   -2.6604  -12.1740 H   0  0  0  0  0  0  0  0  0  0  0  0
  1  2  2  0  0  0  0
  1 20  1  0  0  0  0
  1 33  1  0  0  0  0
  2  3  1  0  0  0  0
  2 26  1  0  0  0  0
  3  4  2  0  0  0  0
  3 34  1  0  0  0  0
  4 19  1  0  0  0  0
  4 35  1  0  0  0  0
  5 26  1  0  0  0  0
  5 27  1  0  0  0  0
  5 28  2  0  0  0  0
  6  7  2  0  0  0  0
  6 11  1  0  0  0  0
  6 27  1  0  0  0  0
  7  8  1  0  0  0  0
  7 36  1  0  0  0  0
  8  9  2  0  0  0  0
  8 37  1  0  0  0  0
  9 10  1  0  0  0  0
  9 12  1  0  0  0  0
 10 11  2  0  0  0  0
 10 38  1  0  0  0  0
 11 39  1  0  0  0  0
 12 29  1  0  0  0  0
 13 14  2  0  0  0  0
 13 29  1  0  0  0  0
 13 40  1  0  0  0  0
 14 30  1  0  0  0  0
 14 41  1  0  0  0  0
 15 16  1  0  0  0  0
 15 30  2  0  0  0  0
 15 31  1  0  0  0  0
 16 29  2  0  0  0  0
 16 42  1  0  0  0  0
 17 18  1  0  0  0  0
 17 31  1  0  0  0  0
 17 43  1  0  0  0  0
 18 44  1  0  0  0  0
 18 45  1  0  0  0  0
 18 46  1  0  0  0  0
 19 20  2  0  0  0  0
 19 25  1  0  0  0  0
 20 21  1  0  0  0  0
 21 22  1  0  0  0  0
 21 23  1  0  0  0  0
 21 24  1  0  0  0  0
 26 47  1  0  0  0  0
 27 48  1  0  0  0  0
 31 32  2  0  0  0  0
M  END
$$$$
