BB2
 OpenBabel04111919373D

 62 62  0  0  1  0  0  0  0  0999 V2000
   10.6191   -7.9144  -15.4471 C   0  0  0  0  0  0  0  0  0  0  0  0
   11.1874   -9.3244  -15.2423 C   0  0  0  0  0  0  0  0  0  0  0  0
   12.0722   -9.7797  -15.9523 O   0  0  0  0  0  0  0  0  0  0  0  0
   10.5797   -9.9652  -14.1960 N   0  0  0  0  0  0  0  0  0  0  0  0
   10.9961  -11.2752  -13.8905 O   0  0  0  0  0  0  0  0  0  0  0  0
    9.5287   -7.8342  -16.5216 C   0  0  2  0  0  0  0  0  0  0  0  0
    9.3783   -6.3484  -16.9253 C   0  0  0  0  0  0  0  0  0  0  0  0
    9.0150   -5.5083  -16.1174 O   0  0  0  0  0  0  0  0  0  0  0  0
    8.1669   -8.3907  -16.0459 C   0  0  0  0  0  0  0  0  0  0  0  0
    7.1779   -8.5063  -17.2116 C   0  0  0  0  0  0  0  0  0  0  0  0
    5.9688   -9.3880  -16.8997 C   0  0  0  0  0  0  0  0  0  0  0  0
    5.2282   -9.8318  -18.1715 C   0  0  0  0  0  0  0  0  0  0  0  0
    4.7863   -8.6508  -19.0173 C   0  0  0  0  0  0  0  0  0  0  0  0
    9.6531   -6.0541  -18.2267 N   0  0  0  0  0  0  0  0  0  0  0  0
    9.5865   -4.6671  -18.6960 C   0  0  1  0  0  0  0  0  0  0  0  0
   10.2258   -4.4980  -20.0988 C   0  0  0  0  0  0  0  0  0  0  0  0
   11.3219   -5.5218  -20.4068 C   0  0  0  0  0  0  0  0  0  0  0  0
    9.1935   -4.5161  -21.2157 C   0  0  0  0  0  0  0  0  0  0  0  0
    8.0947   -4.1369  -18.6464 C   0  0  0  0  0  0  0  0  0  0  0  0
    7.1660   -4.8684  -18.9558 O   0  0  0  0  0  0  0  0  0  0  0  0
    7.9124   -2.7777  -18.2987 N   0  0  0  0  0  0  0  0  0  0  0  0
    6.5983   -2.1204  -18.2338 C   0  0  1  0  0  0  0  0  0  0  0  0
    8.9710   -1.8419  -17.9695 C   0  0  0  0  0  0  0  0  0  0  0  0
    8.3212   -0.6109  -17.3587 C   0  0  0  0  0  0  0  0  0  0  0  0
    6.8267   -0.7624  -17.5431 C   0  0  0  0  0  0  0  0  0  0  0  0
    5.9814   -1.8643  -19.6156 C   0  0  0  0  0  0  0  0  0  0  0  0
    6.8485   -1.0855  -20.4537 O   0  0  0  0  0  0  0  0  0  0  0  0
   11.4628   -7.2651  -15.7106 H   0  0  0  0  0  0  0  0  0  0  0  0
   10.2364   -7.5380  -14.4891 H   0  0  0  0  0  0  0  0  0  0  0  0
    9.8540   -9.5429  -13.6403 H   0  0  0  0  0  0  0  0  0  0  0  0
   10.4424  -11.5470  -13.1322 H   0  0  0  0  0  0  0  0  0  0  0  0
    9.8540   -8.4129  -17.3911 H   0  0  0  0  0  0  0  0  0  0  0  0
    7.7335   -7.7523  -15.2653 H   0  0  0  0  0  0  0  0  0  0  0  0
    8.3150   -9.3839  -15.6077 H   0  0  0  0  0  0  0  0  0  0  0  0
    7.6960   -8.9199  -18.0836 H   0  0  0  0  0  0  0  0  0  0  0  0
    6.8235   -7.5026  -17.4759 H   0  0  0  0  0  0  0  0  0  0  0  0
    5.2759   -8.8370  -16.2528 H   0  0  0  0  0  0  0  0  0  0  0  0
    6.2936  -10.2801  -16.3528 H   0  0  0  0  0  0  0  0  0  0  0  0
    4.3477  -10.4263  -17.8989 H   0  0  0  0  0  0  0  0  0  0  0  0
    5.8787  -10.4787  -18.7732 H   0  0  0  0  0  0  0  0  0  0  0  0
    4.2644   -8.9878  -19.9169 H   0  0  0  0  0  0  0  0  0  0  0  0
    5.6474   -8.0583  -19.3382 H   0  0  0  0  0  0  0  0  0  0  0  0
    4.1143   -8.0042  -18.4458 H   0  0  0  0  0  0  0  0  0  0  0  0
    9.9052   -6.7982  -18.8501 H   0  0  0  0  0  0  0  0  0  0  0  0
   10.1996   -4.0860  -17.9995 H   0  0  0  0  0  0  0  0  0  0  0  0
   10.7044   -3.5104  -20.1236 H   0  0  0  0  0  0  0  0  0  0  0  0
   11.7312   -5.3639  -21.4086 H   0  0  0  0  0  0  0  0  0  0  0  0
   10.9457   -6.5507  -20.3917 H   0  0  0  0  0  0  0  0  0  0  0  0
   12.1353   -5.4379  -19.6796 H   0  0  0  0  0  0  0  0  0  0  0  0
    8.4130   -3.7736  -21.0252 H   0  0  0  0  0  0  0  0  0  0  0  0
    8.7280   -5.5026  -21.3082 H   0  0  0  0  0  0  0  0  0  0  0  0
    9.6563   -4.2455  -22.1677 H   0  0  0  0  0  0  0  0  0  0  0  0
    5.9129   -2.7337  -17.6391 H   0  0  0  0  0  0  0  0  0  0  0  0
    9.5175   -1.5724  -18.8802 H   0  0  0  0  0  0  0  0  0  0  0  0
    9.6672   -2.2864  -17.2560 H   0  0  0  0  0  0  0  0  0  0  0  0
    8.6849    0.3057  -17.8370 H   0  0  0  0  0  0  0  0  0  0  0  0
    8.5634   -0.5342  -16.2929 H   0  0  0  0  0  0  0  0  0  0  0  0
    6.3127   -0.7118  -16.5776 H   0  0  0  0  0  0  0  0  0  0  0  0
    6.4315    0.0806  -18.1241 H   0  0  0  0  0  0  0  0  0  0  0  0
    5.0329   -1.3173  -19.5129 H   0  0  0  0  0  0  0  0  0  0  0  0
    5.7748   -2.8057  -20.1255 H   0  0  0  0  0  0  0  0  0  0  0  0
    7.0345   -0.2405  -20.0168 H   0  0  0  0  0  0  0  0  0  0  0  0
  1  2  1  0  0  0  0
  1  6  1  0  0  0  0
  1 28  1  0  0  0  0
  1 29  1  0  0  0  0
  2  3  2  0  0  0  0
  2  4  1  0  0  0  0
  4  5  1  0  0  0  0
  4 30  1  0  0  0  0
  5 31  1  0  0  0  0
  6  7  1  0  0  0  0
  6  9  1  0  0  0  0
  6 32  1  6  0  0  0
  7  8  2  0  0  0  0
  7 14  1  0  0  0  0
  9 10  1  0  0  0  0
  9 33  1  0  0  0  0
  9 34  1  0  0  0  0
 10 11  1  0  0  0  0
 10 35  1  0  0  0  0
 10 36  1  0  0  0  0
 11 12  1  0  0  0  0
 11 37  1  0  0  0  0
 11 38  1  0  0  0  0
 12 13  1  0  0  0  0
 12 39  1  0  0  0  0
 12 40  1  0  0  0  0
 13 41  1  0  0  0  0
 13 42  1  0  0  0  0
 13 43  1  0  0  0  0
 14 15  1  0  0  0  0
 14 44  1  0  0  0  0
 15 16  1  0  0  0  0
 15 19  1  0  0  0  0
 15 45  1  1  0  0  0
 16 17  1  0  0  0  0
 16 18  1  0  0  0  0
 16 46  1  0  0  0  0
 17 47  1  0  0  0  0
 17 48  1  0  0  0  0
 17 49  1  0  0  0  0
 18 50  1  0  0  0  0
 18 51  1  0  0  0  0
 18 52  1  0  0  0  0
 19 20  2  0  0  0  0
 19 21  1  0  0  0  0
 21 22  1  0  0  0  0
 21 23  1  0  0  0  0
 22 25  1  0  0  0  0
 22 26  1  0  0  0  0
 22 53  1  1  0  0  0
 23 24  1  0  0  0  0
 23 54  1  0  0  0  0
 23 55  1  0  0  0  0
 24 25  1  0  0  0  0
 24 56  1  0  0  0  0
 24 57  1  0  0  0  0
 25 58  1  0  0  0  0
 25 59  1  0  0  0  0
 26 27  1  0  0  0  0
 26 60  1  0  0  0  0
 26 61  1  0  0  0  0
 27 62  1  0  0  0  0
M  END
$$$$
