BE2
 OpenBabel04111920573D

 16 16  0  0  0  0  0  0  0  0999 V2000
    0.8793   38.1086  -16.3595 C   0  0  0  0  0  0  0  0  0  0  0  0
   -0.0265   38.2712  -17.2613 O   0  0  0  0  0  0  0  0  0  0  0  0
    1.8797   38.8807  -16.1915 O   0  0  0  0  0  0  0  0  0  0  0  0
    0.7402   36.9337  -15.4122 C   0  0  0  0  0  0  0  0  0  0  0  0
   -0.2929   35.9812  -15.5166 C   0  0  0  0  0  0  0  0  0  0  0  0
   -0.3458   34.9152  -14.6083 C   0  0  0  0  0  0  0  0  0  0  0  0
   -1.1526   35.9622  -16.6181 N   0  0  0  0  0  0  0  0  0  0  0  0
    0.5851   34.7926  -13.5769 C   0  0  0  0  0  0  0  0  0  0  0  0
    1.6009   35.7321  -13.4524 C   0  0  0  0  0  0  0  0  0  0  0  0
    1.6748   36.7912  -14.3589 C   0  0  0  0  0  0  0  0  0  0  0  0
   -1.1279   34.1687  -14.7094 H   0  0  0  0  0  0  0  0  0  0  0  0
   -1.1348   36.8601  -17.1351 H   0  0  0  0  0  0  0  0  0  0  0  0
   -2.0038   35.4331  -16.6067 H   0  0  0  0  0  0  0  0  0  0  0  0
    0.5175   33.9619  -12.8823 H   0  0  0  0  0  0  0  0  0  0  0  0
    2.3335   35.6466  -12.6590 H   0  0  0  0  0  0  0  0  0  0  0  0
    2.4748   37.5243  -14.2647 H   0  0  0  0  0  0  0  0  0  0  0  0
  1  2  2  0  0  0  0
  1  3  1  0  0  0  0
  1  4  1  0  0  0  0
  4  5  2  0  0  0  0
  4 10  1  0  0  0  0
  5  6  1  0  0  0  0
  5  7  1  0  0  0  0
  6  8  2  0  0  0  0
  6 11  1  0  0  0  0
  7 12  1  0  0  0  0
  7 13  1  0  0  0  0
  8  9  1  0  0  0  0
  8 14  1  0  0  0  0
  9 10  2  0  0  0  0
  9 15  1  0  0  0  0
 10 16  1  0  0  0  0
M  END
$$$$
