BES
 OpenBabel04111920003D

 46 46  0  0  1  0  0  0  0  0999 V2000
   -9.9318   38.6895   44.7250 N   0  3  0  0  0  0  0  0  0  0  0  0
  -10.9677   38.8782   43.6493 C   0  0  2  0  0  0  0  0  0  0  0  0
  -12.3445   38.9566   44.2920 C   0  0  0  0  0  0  0  0  0  0  0  0
  -12.7774   40.3843   44.4487 C   0  0  0  0  0  0  0  0  0  0  0  0
  -13.2972   41.0788   43.3537 C   0  0  0  0  0  0  0  0  0  0  0  0
  -12.6493   41.0359   45.6752 C   0  0  0  0  0  0  0  0  0  0  0  0
  -13.7000   42.4068   43.4944 C   0  0  0  0  0  0  0  0  0  0  0  0
  -13.0506   42.3644   45.8140 C   0  0  0  0  0  0  0  0  0  0  0  0
  -13.5791   43.0520   44.7238 C   0  0  0  0  0  0  0  0  0  0  0  0
  -10.8521   37.6894   42.7057 C   0  0  2  0  0  0  0  0  0  0  0  0
   -9.5002   37.2157   42.7106 O   0  0  0  0  0  0  0  0  0  0  0  0
  -11.2336   38.1888   41.3475 C   0  0  0  0  0  0  0  0  0  0  0  0
  -10.5640   39.0827   40.7994 O   0  0  0  0  0  0  0  0  0  0  0  0
  -12.2973   37.6199   40.7776 N   0  0  0  0  0  0  0  0  0  0  0  0
  -12.9066   38.1644   39.5594 C   0  0  1  0  0  0  0  0  0  0  0  0
  -12.7682   37.1431   38.4367 C   0  0  0  0  0  0  0  0  0  0  0  0
  -11.4027   37.2158   37.7419 C   0  0  0  0  0  0  0  0  0  0  0  0
  -11.2701   36.0944   36.7236 C   0  0  0  0  0  0  0  0  0  0  0  0
  -11.1811   38.5513   37.0440 C   0  0  0  0  0  0  0  0  0  0  0  0
  -14.3833   38.6004   39.7387 C   0  0  0  0  0  0  0  0  0  0  0  0
  -14.8143   38.3962   40.9233 O   0  0  0  0  0  0  0  0  0  0  0  0
  -14.9462   39.0963   38.7530 O   0  0  0  0  0  0  0  0  0  0  0  0
   -9.0087   38.6464   44.2733 H   0  0  0  0  0  0  0  0  0  0  0  0
   -9.9470   39.4824   45.3732 H   0  0  0  0  0  0  0  0  0  0  0  0
  -10.7064   39.8207   43.1514 H   0  0  0  0  0  0  0  0  0  0  0  0
  -12.3417   38.4681   45.2764 H   0  0  0  0  0  0  0  0  0  0  0  0
  -13.0638   38.4320   43.6624 H   0  0  0  0  0  0  0  0  0  0  0  0
  -13.4076   40.5856   42.3852 H   0  0  0  0  0  0  0  0  0  0  0  0
  -12.2541   40.5080   46.5356 H   0  0  0  0  0  0  0  0  0  0  0  0
  -14.1151   42.9368   42.6392 H   0  0  0  0  0  0  0  0  0  0  0  0
  -12.9567   42.8653   46.7729 H   0  0  0  0  0  0  0  0  0  0  0  0
  -13.8980   44.0853   44.8276 H   0  0  0  0  0  0  0  0  0  0  0  0
  -11.5236   36.8780   43.0276 H   0  0  0  0  0  0  0  0  0  0  0  0
   -9.2731   36.8652   43.5714 H   0  0  0  0  0  0  0  0  0  0  0  0
  -12.8154   36.8637   41.2273 H   0  0  0  0  0  0  0  0  0  0  0  0
  -12.3602   39.0778   39.2914 H   0  0  0  0  0  0  0  0  0  0  0  0
  -13.5562   37.3000   37.6910 H   0  0  0  0  0  0  0  0  0  0  0  0
  -12.8932   36.1365   38.8571 H   0  0  0  0  0  0  0  0  0  0  0  0
  -10.6189   37.0904   38.4986 H   0  0  0  0  0  0  0  0  0  0  0  0
  -10.2987   36.1537   36.2226 H   0  0  0  0  0  0  0  0  0  0  0  0
  -12.0594   36.1665   35.9667 H   0  0  0  0  0  0  0  0  0  0  0  0
  -11.3482   35.1235   37.2216 H   0  0  0  0  0  0  0  0  0  0  0  0
  -11.2615   39.3813   37.7471 H   0  0  0  0  0  0  0  0  0  0  0  0
  -11.9189   38.7005   36.2485 H   0  0  0  0  0  0  0  0  0  0  0  0
  -10.1786   38.5887   36.6095 H   0  0  0  0  0  0  0  0  0  0  0  0
  -10.1128   37.8173   45.2363 H   0  0  0  0  0  0  0  0  0  0  0  0
  1  2  1  0  0  0  0
  1 23  1  0  0  0  0
  1 24  1  0  0  0  0
  1 46  1  0  0  0  0
  2  3  1  0  0  0  0
  2 10  1  0  0  0  0
  2 25  1  6  0  0  0
  3  4  1  0  0  0  0
  3 26  1  0  0  0  0
  3 27  1  0  0  0  0
  4  5  2  0  0  0  0
  4  6  1  0  0  0  0
  5  7  1  0  0  0  0
  5 28  1  0  0  0  0
  6  8  2  0  0  0  0
  6 29  1  0  0  0  0
  7  9  2  0  0  0  0
  7 30  1  0  0  0  0
  8  9  1  0  0  0  0
  8 31  1  0  0  0  0
  9 32  1  0  0  0  0
 10 11  1  0  0  0  0
 10 12  1  0  0  0  0
 10 33  1  1  0  0  0
 11 34  1  0  0  0  0
 12 13  2  0  0  0  0
 12 14  1  0  0  0  0
 14 15  1  0  0  0  0
 14 35  1  0  0  0  0
 15 16  1  0  0  0  0
 15 20  1  0  0  0  0
 15 36  1  6  0  0  0
 16 17  1  0  0  0  0
 16 37  1  0  0  0  0
 16 38  1  0  0  0  0
 17 18  1  0  0  0  0
 17 19  1  0  0  0  0
 17 39  1  0  0  0  0
 18 40  1  0  0  0  0
 18 41  1  0  0  0  0
 18 42  1  0  0  0  0
 19 43  1  0  0  0  0
 19 44  1  0  0  0  0
 19 45  1  0  0  0  0
 20 21  2  0  0  0  0
 20 22  1  0  0  0  0
M  CHG  1   1   1
M  END
$$$$
