BNZ
 OpenBabel04111919223D

 12 12  0  0  0  0  0  0  0  0999 V2000
    4.0658    8.5630    0.2299 C   0  0  0  0  0  0  0  0  0  0  0  0
    4.5541    9.7762    0.7166 C   0  0  0  0  0  0  0  0  0  0  0  0
    3.7495   10.5777    1.5257 C   0  0  0  0  0  0  0  0  0  0  0  0
    2.4572   10.1649    1.8501 C   0  0  0  0  0  0  0  0  0  0  0  0
    1.9717    8.9484    1.3695 C   0  0  0  0  0  0  0  0  0  0  0  0
    2.7761    8.1469    0.5601 C   0  0  0  0  0  0  0  0  0  0  0  0
    4.6903    7.9421   -0.4066 H   0  0  0  0  0  0  0  0  0  0  0  0
    5.5619   10.0953    0.4648 H   0  0  0  0  0  0  0  0  0  0  0  0
    4.1288   11.5243    1.9032 H   0  0  0  0  0  0  0  0  0  0  0  0
    1.8285   10.7900    2.4781 H   0  0  0  0  0  0  0  0  0  0  0  0
    0.9662    8.6252    1.6260 H   0  0  0  0  0  0  0  0  0  0  0  0
    2.3986    7.1985    0.1871 H   0  0  0  0  0  0  0  0  0  0  0  0
  1  2  2  0  0  0  0
  1  6  1  0  0  0  0
  1  7  1  0  0  0  0
  2  3  1  0  0  0  0
  2  8  1  0  0  0  0
  3  4  2  0  0  0  0
  3  9  1  0  0  0  0
  4  5  1  0  0  0  0
  4 10  1  0  0  0  0
  5  6  2  0  0  0  0
  5 11  1  0  0  0  0
  6 12  1  0  0  0  0
M  END
$$$$
