BTN
 OpenBabel04111918073D

 31 32  0  0  1  0  0  0  0  0999 V2000
   69.0876   -8.7795   33.2523 C   0  0  0  0  0  0  0  0  0  0  0  0
   69.5026   -9.9078   33.6452 O   0  0  0  0  0  0  0  0  0  0  0  0
   68.4555   -8.4970   32.1937 O   0  0  0  0  0  0  0  0  0  0  0  0
   69.4242   -7.6218   34.2001 C   0  0  0  0  0  0  0  0  0  0  0  0
   68.7223   -6.3014   33.9196 C   0  0  0  0  0  0  0  0  0  0  0  0
   69.4402   -5.4396   32.8853 C   0  0  0  0  0  0  0  0  0  0  0  0
   68.7091   -4.1021   32.7350 C   0  0  0  0  0  0  0  0  0  0  0  0
   69.4622   -3.2056   31.7753 C   0  0  2  0  0  0  0  0  0  0  0  0
   70.9320   -2.4572   32.5465 S   0  0  0  0  0  0  0  0  0  0  0  0
   71.0754   -1.2614   31.2146 C   0  0  0  0  0  0  0  0  0  0  0  0
   69.6499   -0.9384   30.7770 C   0  0  2  0  0  0  0  0  0  0  0  0
   69.2037    0.2502   31.4741 N   0  0  0  0  0  0  0  0  0  0  0  0
   68.1861   -0.0110   32.3673 C   0  0  0  0  0  0  0  0  0  0  0  0
   67.6239    0.7968   33.0545 O   0  0  0  0  0  0  0  0  0  0  0  0
   67.8879   -1.3522   32.2811 N   0  0  0  0  0  0  0  0  0  0  0  0
   68.6595   -2.0243   31.2539 C   0  0  2  0  0  0  0  0  0  0  0  0
   70.5109   -7.4719   34.1714 H   0  0  0  0  0  0  0  0  0  0  0  0
   69.1518   -7.9475   35.2173 H   0  0  0  0  0  0  0  0  0  0  0  0
   68.6591   -5.7294   34.8537 H   0  0  0  0  0  0  0  0  0  0  0  0
   67.7063   -6.4970   33.5632 H   0  0  0  0  0  0  0  0  0  0  0  0
   69.4644   -5.9510   31.9134 H   0  0  0  0  0  0  0  0  0  0  0  0
   70.4767   -5.2566   33.1986 H   0  0  0  0  0  0  0  0  0  0  0  0
   68.6084   -3.6278   33.7237 H   0  0  0  0  0  0  0  0  0  0  0  0
   67.6949   -4.2874   32.3510 H   0  0  0  0  0  0  0  0  0  0  0  0
   69.8154   -3.7809   30.9150 H   0  0  0  0  0  0  0  0  0  0  0  0
   71.6411   -1.7058   30.3918 H   0  0  0  0  0  0  0  0  0  0  0  0
   71.5912   -0.3696   31.5741 H   0  0  0  0  0  0  0  0  0  0  0  0
   69.5882   -0.7735   29.6924 H   0  0  0  0  0  0  0  0  0  0  0  0
   69.6213    1.1653   31.4169 H   0  0  0  0  0  0  0  0  0  0  0  0
   67.2293   -1.7754   32.9152 H   0  0  0  0  0  0  0  0  0  0  0  0
   67.9720   -2.3422   30.4523 H   0  0  0  0  0  0  0  0  0  0  0  0
  1  2  2  0  0  0  0
  1  3  1  0  0  0  0
  1  4  1  0  0  0  0
  4  5  1  0  0  0  0
  4 17  1  0  0  0  0
  4 18  1  0  0  0  0
  5  6  1  0  0  0  0
  5 19  1  0  0  0  0
  5 20  1  0  0  0  0
  6  7  1  0  0  0  0
  6 21  1  0  0  0  0
  6 22  1  0  0  0  0
  7  8  1  0  0  0  0
  7 23  1  0  0  0  0
  7 24  1  0  0  0  0
  8  9  1  0  0  0  0
  8 16  1  0  0  0  0
  8 25  1  6  0  0  0
  9 10  1  0  0  0  0
 10 11  1  0  0  0  0
 10 26  1  0  0  0  0
 10 27  1  0  0  0  0
 11 12  1  0  0  0  0
 11 16  1  0  0  0  0
 11 28  1  6  0  0  0
 12 13  1  0  0  0  0
 12 29  1  0  0  0  0
 13 14  2  0  0  0  0
 13 15  1  0  0  0  0
 15 16  1  0  0  0  0
 15 30  1  0  0  0  0
 16 31  1  6  0  0  0
M  END
$$$$
