BZ1
 OpenBabel04111920173D

 45 46  0  0  1  0  0  0  0  0999 V2000
   19.3334    7.7922   13.9494 C   0  0  0  0  0  0  0  0  0  0  0  0
   17.1274    3.2719   14.4589 C   0  0  0  0  0  0  0  0  0  0  0  0
   16.0877    4.1550   14.6898 C   0  0  0  0  0  0  0  0  0  0  0  0
   18.3031    3.5392   13.6717 C   0  0  2  0  0  0  0  0  0  0  0  0
   18.6432    4.9878   13.4969 C   0  0  0  0  0  0  0  0  0  0  0  0
   15.3005    0.6986   16.9008 S   0  0  0  0  0  0  0  0  0  0  0  0
   19.8460    9.1384   13.4363 C   0  0  0  0  0  0  0  0  0  0  0  0
   19.7812    1.9253   10.5317 C   0  0  0  0  0  0  0  0  0  0  0  0
   19.6353    2.7518   11.7677 C   0  0  0  0  0  0  0  0  0  0  0  0
   14.9651    3.4926   15.7906 S   0  0  0  0  0  0  0  0  0  0  0  0
   15.9443   -0.6752   16.2038 N   0  0  0  0  0  0  0  0  0  0  0  0
   13.8795    0.7308   16.7658 O   0  0  0  0  0  0  0  0  0  0  0  0
   15.9193    0.8746   18.1981 O   0  0  0  0  0  0  0  0  0  0  0  0
   15.9066    2.0239   15.8857 C   0  0  0  0  0  0  0  0  0  0  0  0
   17.0108    2.0655   15.1287 C   0  0  0  0  0  0  0  0  0  0  0  0
   16.0530    5.8035   14.1362 S   0  0  0  0  0  0  0  0  0  0  0  0
   15.9107    6.6005   15.2991 O   0  0  0  0  0  0  0  0  0  0  0  0
   15.0619    5.9195   13.0273 O   0  0  0  0  0  0  0  0  0  0  0  0
   17.5986    5.9937   13.4624 N   0  0  0  0  0  0  0  0  0  0  0  0
   18.2815    2.7744   12.3780 N   0  3  0  0  0  0  0  0  0  0  0  0
   18.1441    7.3122   13.0887 C   0  0  0  0  0  0  0  0  0  0  0  0
   19.9739   10.1632   14.4168 O   0  0  0  0  0  0  0  0  0  0  0  0
   21.1928   10.1536   15.1518 C   0  0  0  0  0  0  0  0  0  0  0  0
   19.0225    7.8579   14.9889 H   0  0  0  0  0  0  0  0  0  0  0  0
   20.1687    7.0808   13.8465 H   0  0  0  0  0  0  0  0  0  0  0  0
   19.1323    3.0898   14.2240 H   0  0  0  0  0  0  0  0  0  0  0  0
   19.1670    5.0967   12.5485 H   0  0  0  0  0  0  0  0  0  0  0  0
   19.3210    5.2228   14.3143 H   0  0  0  0  0  0  0  0  0  0  0  0
   19.1200    9.5286   12.7197 H   0  0  0  0  0  0  0  0  0  0  0  0
   20.8078    8.9717   12.9440 H   0  0  0  0  0  0  0  0  0  0  0  0
   20.8231    2.0280   10.2011 H   0  0  0  0  0  0  0  0  0  0  0  0
   19.1335    2.2810    9.7280 H   0  0  0  0  0  0  0  0  0  0  0  0
   19.5886    0.8712   10.7306 H   0  0  0  0  0  0  0  0  0  0  0  0
   19.8647    3.7743   11.5011 H   0  0  0  0  0  0  0  0  0  0  0  0
   20.3087    2.3770   12.5384 H   0  0  0  0  0  0  0  0  0  0  0  0
   15.6790   -0.9502   15.2675 H   0  0  0  0  0  0  0  0  0  0  0  0
   16.5512   -1.2700   16.7739 H   0  0  0  0  0  0  0  0  0  0  0  0
   17.7808    1.3140   15.0154 H   0  0  0  0  0  0  0  0  0  0  0  0
   17.9676    1.8111   12.5823 H   0  0  0  0  0  0  0  0  0  0  0  0
   18.5044    7.1978   12.0564 H   0  0  0  0  0  0  0  0  0  0  0  0
   17.3501    8.0344   13.1594 H   0  0  0  0  0  0  0  0  0  0  0  0
   21.1800   11.0337   15.8097 H   0  0  0  0  0  0  0  0  0  0  0  0
   22.0662   10.2335   14.4896 H   0  0  0  0  0  0  0  0  0  0  0  0
   21.2556    9.2534   15.7597 H   0  0  0  0  0  0  0  0  0  0  0  0
   17.5866    3.2094   11.7538 H   0  0  0  0  0  0  0  0  0  0  0  0
  1  7  1  0  0  0  0
  1 21  1  0  0  0  0
  1 24  1  0  0  0  0
  1 25  1  0  0  0  0
  2  3  2  0  0  0  0
  2  4  1  0  0  0  0
  2 15  1  0  0  0  0
  3 10  1  0  0  0  0
  3 16  1  0  0  0  0
  4  5  1  0  0  0  0
  4 20  1  0  0  0  0
  4 26  1  1  0  0  0
  5 19  1  0  0  0  0
  5 27  1  0  0  0  0
  5 28  1  0  0  0  0
  6 11  1  0  0  0  0
  6 12  2  0  0  0  0
  6 13  2  0  0  0  0
  6 14  1  0  0  0  0
  7 22  1  0  0  0  0
  7 29  1  0  0  0  0
  7 30  1  0  0  0  0
  8  9  1  0  0  0  0
  8 31  1  0  0  0  0
  8 32  1  0  0  0  0
  8 33  1  0  0  0  0
  9 20  1  0  0  0  0
  9 34  1  0  0  0  0
  9 35  1  0  0  0  0
 10 14  1  0  0  0  0
 11 36  1  0  0  0  0
 11 37  1  0  0  0  0
 14 15  2  0  0  0  0
 15 38  1  0  0  0  0
 16 17  2  0  0  0  0
 16 18  2  0  0  0  0
 16 19  1  0  0  0  0
 19 21  1  0  0  0  0
 20 39  1  0  0  0  0
 20 45  1  0  0  0  0
 21 40  1  0  0  0  0
 21 41  1  0  0  0  0
 22 23  1  0  0  0  0
 23 42  1  0  0  0  0
 23 43  1  0  0  0  0
 23 44  1  0  0  0  0
M  CHG  1  20   1
M  END
$$$$
