BZ1
 OpenBabel04111920173D

 45 46  0  0  1  0  0  0  0  0999 V2000
    1.6640    8.3553   84.3743 C   0  0  0  0  0  0  0  0  0  0  0  0
   -0.1797    3.6943   85.1014 C   0  0  0  0  0  0  0  0  0  0  0  0
   -1.2067    4.5333   85.4908 C   0  0  0  0  0  0  0  0  0  0  0  0
    0.8635    4.1001   84.1059 C   0  0  2  0  0  0  0  0  0  0  0  0
    0.4992    5.4063   83.3097 C   0  0  0  0  0  0  0  0  0  0  0  0
   -1.9472    0.9984   87.5568 S   0  0  0  0  0  0  0  0  0  0  0  0
    0.6500    9.4842   84.4909 C   0  0  0  0  0  0  0  0  0  0  0  0
    2.3560    1.9585   81.3312 C   0  0  0  0  0  0  0  0  0  0  0  0
    2.2117    3.1653   82.2284 C   0  0  0  0  0  0  0  0  0  0  0  0
   -2.3160    3.7921   86.5363 S   0  0  0  0  0  0  0  0  0  0  0  0
   -1.3305   -0.3255   86.6971 N   0  0  0  0  0  0  0  0  0  0  0  0
   -1.2162    1.1137   88.7843 O   0  0  0  0  0  0  0  0  0  0  0  0
   -3.3819    0.9278   87.4426 O   0  0  0  0  0  0  0  0  0  0  0  0
   -1.3866    2.3626   86.5701 C   0  0  0  0  0  0  0  0  0  0  0  0
   -0.2512    2.4529   85.7832 C   0  0  0  0  0  0  0  0  0  0  0  0
   -1.4745    6.2049   84.9302 S   0  0  0  0  0  0  0  0  0  0  0  0
   -1.6131    7.0327   86.1014 O   0  0  0  0  0  0  0  0  0  0  0  0
   -2.4330    6.0628   83.8790 O   0  0  0  0  0  0  0  0  0  0  0  0
    0.0511    6.5179   84.1867 N   0  0  0  0  0  0  0  0  0  0  0  0
    1.0482    2.9772   83.1197 N   0  3  0  0  0  0  0  0  0  0  0  0
    1.1657    7.0653   84.9976 C   0  0  0  0  0  0  0  0  0  0  0  0
    1.3769   10.6980   84.6393 O   0  0  0  0  0  0  0  0  0  0  0  0
    0.6682   11.8141   84.1194 C   0  0  0  0  0  0  0  0  0  0  0  0
    2.6141    8.6298   84.8516 H   0  0  0  0  0  0  0  0  0  0  0  0
    1.8989    8.2034   83.3146 H   0  0  0  0  0  0  0  0  0  0  0  0
    1.8137    4.2125   84.6432 H   0  0  0  0  0  0  0  0  0  0  0  0
   -0.2730    5.1958   82.5628 H   0  0  0  0  0  0  0  0  0  0  0  0
    1.3797    5.7570   82.7582 H   0  0  0  0  0  0  0  0  0  0  0  0
    0.0032    9.3524   85.3651 H   0  0  0  0  0  0  0  0  0  0  0  0
    0.0262    9.5047   83.5889 H   0  0  0  0  0  0  0  0  0  0  0  0
    3.2046    2.1178   80.6673 H   0  0  0  0  0  0  0  0  0  0  0  0
    1.4567    1.8172   80.7238 H   0  0  0  0  0  0  0  0  0  0  0  0
    2.5299    1.0525   81.9170 H   0  0  0  0  0  0  0  0  0  0  0  0
    2.0345    4.0597   81.6274 H   0  0  0  0  0  0  0  0  0  0  0  0
    3.0942    3.3008   82.8612 H   0  0  0  0  0  0  0  0  0  0  0  0
   -0.4173   -0.6240   87.0413 H   0  0  0  0  0  0  0  0  0  0  0  0
   -2.0282   -1.0613   86.6249 H   0  0  0  0  0  0  0  0  0  0  0  0
    0.4536    1.6349   85.7017 H   0  0  0  0  0  0  0  0  0  0  0  0
    1.1537    2.0971   83.6353 H   0  0  0  0  0  0  0  0  0  0  0  0
    0.9096    7.1739   86.0517 H   0  0  0  0  0  0  0  0  0  0  0  0
    2.0116    6.3646   84.9684 H   0  0  0  0  0  0  0  0  0  0  0  0
    1.2206   12.7221   84.3742 H   0  0  0  0  0  0  0  0  0  0  0  0
   -0.3403   11.8801   84.5394 H   0  0  0  0  0  0  0  0  0  0  0  0
    0.6193   11.7321   83.0296 H   0  0  0  0  0  0  0  0  0  0  0  0
    0.1698    2.8793   82.5896 H   0  0  0  0  0  0  0  0  0  0  0  0
  1  7  1  0  0  0  0
  1 21  1  0  0  0  0
  1 24  1  0  0  0  0
  1 25  1  0  0  0  0
  2  3  2  0  0  0  0
  2  4  1  0  0  0  0
  2 15  1  0  0  0  0
  3 10  1  0  0  0  0
  3 16  1  0  0  0  0
  4  5  1  0  0  0  0
  4 20  1  0  0  0  0
  4 26  1  1  0  0  0
  5 19  1  0  0  0  0
  5 27  1  0  0  0  0
  5 28  1  0  0  0  0
  6 11  1  0  0  0  0
  6 12  2  0  0  0  0
  6 13  2  0  0  0  0
  6 14  1  0  0  0  0
  7 22  1  0  0  0  0
  7 29  1  0  0  0  0
  7 30  1  0  0  0  0
  8  9  1  0  0  0  0
  8 31  1  0  0  0  0
  8 32  1  0  0  0  0
  8 33  1  0  0  0  0
  9 20  1  0  0  0  0
  9 34  1  0  0  0  0
  9 35  1  0  0  0  0
 10 14  1  0  0  0  0
 11 36  1  0  0  0  0
 11 37  1  0  0  0  0
 14 15  2  0  0  0  0
 15 38  1  0  0  0  0
 16 17  2  0  0  0  0
 16 18  2  0  0  0  0
 16 19  1  0  0  0  0
 19 21  1  0  0  0  0
 20 39  1  0  0  0  0
 20 45  1  0  0  0  0
 21 40  1  0  0  0  0
 21 41  1  0  0  0  0
 22 23  1  0  0  0  0
 23 42  1  0  0  0  0
 23 43  1  0  0  0  0
 23 44  1  0  0  0  0
M  CHG  1  20   1
M  END
$$$$
