C2E
 OpenBabel04111918483D

 68 74  0  0  1  0  0  0  0  0999 V2000
   14.3098   -1.9721   -7.4194 P   0  0  2  0  0  0  0  0  0  0  0  0
   13.3103   -1.4567   -8.4207 O   0  0  0  0  0  0  0  0  0  0  0  0
   14.0594   -3.2368   -6.6448 O   0  0  0  0  0  0  0  0  0  0  0  0
   14.6984   -0.8090   -6.3684 O   0  0  0  0  0  0  0  0  0  0  0  0
   15.0380    0.4988   -6.7907 C   0  0  0  0  0  0  0  0  0  0  0  0
   15.5165    1.3111   -5.5650 C   0  0  1  0  0  0  0  0  0  0  0  0
   14.4417    1.4743   -4.6009 O   0  0  0  0  0  0  0  0  0  0  0  0
   16.6689    0.6481   -4.8108 C   0  0  1  0  0  0  0  0  0  0  0  0
   17.9281    0.9970   -5.3723 O   0  0  0  0  0  0  0  0  0  0  0  0
   16.5075    1.1792   -3.3939 C   0  0  1  0  0  0  0  0  0  0  0  0
   17.1524    2.4590   -3.2321 O   0  0  0  0  0  0  0  0  0  0  0  0
   14.9942    1.3223   -3.2573 C   0  0  2  0  0  0  0  0  0  0  0  0
   14.3775    0.1840   -2.5820 N   0  3  0  0  0  0  0  0  0  0  0  0
   13.6076   -0.7722   -3.1993 C   0  0  0  0  0  0  0  0  0  0  0  0
   13.1808   -1.7042   -2.3592 N   0  0  0  0  0  0  0  0  0  0  0  0
   13.7553   -1.3615   -1.1700 C   0  0  0  0  0  0  0  0  0  0  0  0
   13.6708   -2.0304    0.1119 C   0  0  0  0  0  0  0  0  0  0  0  0
   13.0360   -3.0485    0.3659 O   0  0  0  0  0  0  0  0  0  0  0  0
   14.3725   -1.3618    1.1024 N   0  3  0  0  0  0  0  0  0  0  0  0
   15.0666   -0.1857    0.9093 C   0  0  0  0  0  0  0  0  0  0  0  0
   15.6593    0.3250    2.0184 N   0  0  0  0  0  0  0  0  0  0  0  0
   15.1477    0.4378   -0.2433 N   0  0  0  0  0  0  0  0  0  0  0  0
   14.4795   -0.1903   -1.2558 C   0  0  0  0  0  0  0  0  0  0  0  0
   19.1591   -0.0252   -5.1291 P   0  0  1  0  0  0  0  0  0  0  0  0
   20.4052    0.5964   -5.7062 O   0  0  0  0  0  0  0  0  0  0  0  0
   19.1044   -0.4838   -3.6973 O   0  0  0  0  0  0  0  0  0  0  0  0
   18.6802   -1.2300   -6.0815 O   0  0  0  0  0  0  0  0  0  0  0  0
   18.6751   -1.0711   -7.4865 C   0  0  0  0  0  0  0  0  0  0  0  0
   18.1462   -2.3829   -8.0784 C   0  0  1  0  0  0  0  0  0  0  0  0
   19.0495   -3.4717   -7.7359 O   0  0  0  0  0  0  0  0  0  0  0  0
   16.7831   -2.7722   -7.5089 C   0  0  1  0  0  0  0  0  0  0  0  0
   15.7250   -2.1426   -8.2053 O   0  0  0  0  0  0  0  0  0  0  0  0
   16.7887   -4.2818   -7.6844 C   0  0  1  0  0  0  0  0  0  0  0  0
   16.4604   -4.6634   -9.0347 O   0  0  0  0  0  0  0  0  0  0  0  0
   18.2432   -4.6361   -7.4047 C   0  0  2  0  0  0  0  0  0  0  0  0
   18.4459   -5.0462   -6.0167 N   0  3  0  0  0  0  0  0  0  0  0  0
   18.9577   -4.2561   -5.0208 C   0  0  0  0  0  0  0  0  0  0  0  0
   18.9661   -4.8773   -3.8459 N   0  0  0  0  0  0  0  0  0  0  0  0
   18.3763   -6.0768   -4.0972 C   0  0  0  0  0  0  0  0  0  0  0  0
   18.0913   -7.1666   -3.1956 C   0  0  0  0  0  0  0  0  0  0  0  0
   18.3727   -7.2193   -1.9853 O   0  0  0  0  0  0  0  0  0  0  0  0
   17.4870   -8.2384   -3.8176 N   0  3  0  0  0  0  0  0  0  0  0  0
   17.2267   -8.2920   -5.1829 C   0  0  0  0  0  0  0  0  0  0  0  0
   16.6976   -9.4522   -5.6387 N   0  0  0  0  0  0  0  0  0  0  0  0
   17.4878   -7.3184   -6.0177 N   0  0  0  0  0  0  0  0  0  0  0  0
   18.0582   -6.2287   -5.4299 C   0  0  0  0  0  0  0  0  0  0  0  0
   14.1563    0.9723   -7.2388 H   0  0  0  0  0  0  0  0  0  0  0  0
   15.8280    0.4501   -7.5474 H   0  0  0  0  0  0  0  0  0  0  0  0
   15.7925    2.3159   -5.9098 H   0  0  0  0  0  0  0  0  0  0  0  0
   16.5304   -0.4394   -4.7974 H   0  0  0  0  0  0  0  0  0  0  0  0
   16.9328    0.5101   -2.6422 H   0  0  0  0  0  0  0  0  0  0  0  0
   18.0939    2.2635   -3.4255 H   0  0  0  0  0  0  0  0  0  0  0  0
   14.7009    2.2251   -2.7066 H   0  0  0  0  0  0  0  0  0  0  0  0
   13.3883   -0.7444   -4.2638 H   0  0  0  0  0  0  0  0  0  0  0  0
   14.3329   -1.7906    2.0068 H   0  0  0  0  0  0  0  0  0  0  0  0
   16.2698    1.1221    1.8881 H   0  0  0  0  0  0  0  0  0  0  0  0
   15.6812   -0.1515    2.9069 H   0  0  0  0  0  0  0  0  0  0  0  0
   19.6948   -0.8807   -7.8353 H   0  0  0  0  0  0  0  0  0  0  0  0
   18.0387   -0.2289   -7.7720 H   0  0  0  0  0  0  0  0  0  0  0  0
   18.1177   -2.2959   -9.1722 H   0  0  0  0  0  0  0  0  0  0  0  0
   16.7325   -2.5309   -6.4413 H   0  0  0  0  0  0  0  0  0  0  0  0
   16.0884   -4.7856   -7.0162 H   0  0  0  0  0  0  0  0  0  0  0  0
   15.5672   -4.2883   -9.1706 H   0  0  0  0  0  0  0  0  0  0  0  0
   18.6147   -5.4470   -8.0404 H   0  0  0  0  0  0  0  0  0  0  0  0
   19.3102   -3.2501   -5.1779 H   0  0  0  0  0  0  0  0  0  0  0  0
   17.2770   -9.0078   -3.2179 H   0  0  0  0  0  0  0  0  0  0  0  0
   16.3828   -9.4449   -6.6018 H   0  0  0  0  0  0  0  0  0  0  0  0
   16.3764  -10.1984   -5.0402 H   0  0  0  0  0  0  0  0  0  0  0  0
  1  2  2  6  0  0  0
  1  3  1  0  0  0  0
  1  4  1  0  0  0  0
  1 32  1  0  0  0  0
  4  5  1  0  0  0  0
  5  6  1  0  0  0  0
  5 47  1  0  0  0  0
  5 48  1  0  0  0  0
  6  7  1  0  0  0  0
  6  8  1  0  0  0  0
  6 49  1  6  0  0  0
  7 12  1  0  0  0  0
  8  9  1  0  0  0  0
  8 10  1  0  0  0  0
  8 50  1  6  0  0  0
  9 24  1  0  0  0  0
 10 11  1  0  0  0  0
 10 12  1  0  0  0  0
 10 51  1  1  0  0  0
 11 52  1  0  0  0  0
 12 13  1  0  0  0  0
 12 53  1  1  0  0  0
 13 14  2  0  0  0  0
 13 23  1  0  0  0  0
 14 15  1  0  0  0  0
 14 54  1  0  0  0  0
 15 16  1  0  0  0  0
 16 17  1  0  0  0  0
 16 23  2  0  0  0  0
 17 18  2  0  0  0  0
 17 19  1  0  0  0  0
 19 20  1  0  0  0  0
 19 55  1  0  0  0  0
 20 21  1  0  0  0  0
 20 22  2  0  0  0  0
 21 56  1  0  0  0  0
 21 57  1  0  0  0  0
 22 23  1  0  0  0  0
 24 25  2  6  0  0  0
 24 26  1  0  0  0  0
 24 27  1  0  0  0  0
 27 28  1  0  0  0  0
 28 29  1  0  0  0  0
 28 58  1  0  0  0  0
 28 59  1  0  0  0  0
 29 30  1  0  0  0  0
 29 31  1  0  0  0  0
 29 60  1  6  0  0  0
 30 35  1  0  0  0  0
 31 32  1  0  0  0  0
 31 33  1  0  0  0  0
 31 61  1  1  0  0  0
 33 34  1  0  0  0  0
 33 35  1  0  0  0  0
 33 62  1  1  0  0  0
 34 63  1  0  0  0  0
 35 36  1  0  0  0  0
 35 64  1  6  0  0  0
 36 37  2  0  0  0  0
 36 46  1  0  0  0  0
 37 38  1  0  0  0  0
 37 65  1  0  0  0  0
 38 39  1  0  0  0  0
 39 40  1  0  0  0  0
 39 46  2  0  0  0  0
 40 41  2  0  0  0  0
 40 42  1  0  0  0  0
 42 43  1  0  0  0  0
 42 66  1  0  0  0  0
 43 44  1  0  0  0  0
 43 45  2  0  0  0  0
 44 67  1  0  0  0  0
 44 68  1  0  0  0  0
 45 46  1  0  0  0  0
M  CHG  4  13   1  19   1  36   1  42   1
M  END
$$$$
