CF9
 OpenBabel04111920123D

 34 37  0  0  0  0  0  0  0  0999 V2000
    6.1322   11.6422  -40.1961 O   0  0  0  0  0  0  0  0  0  0  0  0
    6.4709   12.8271  -40.2772 N   0  0  0  0  0  0  0  0  0  0  0  0
    7.5179   13.3362  -39.9566 O   0  0  0  0  0  0  0  0  0  0  0  0
    5.4521   13.7177  -40.8419 C   0  0  0  0  0  0  0  0  0  0  0  0
    4.1417   13.4141  -40.5915 C   0  0  0  0  0  0  0  0  0  0  0  0
    3.2377   14.0964  -41.2910 C   0  0  0  0  0  0  0  0  0  0  0  0
    5.7916   14.7901  -41.6897 C   0  0  0  0  0  0  0  0  0  0  0  0
    4.7789   15.5056  -42.3263 C   0  0  0  0  0  0  0  0  0  0  0  0
    3.4687   15.1755  -42.1152 C   0  0  0  0  0  0  0  0  0  0  0  0
    2.3514   15.8867  -42.7625 C   0  0  0  0  0  0  0  0  0  0  0  0
    2.5562   16.6238  -43.7062 O   0  0  0  0  0  0  0  0  0  0  0  0
    1.0370   15.6476  -42.2755 O   0  0  0  0  0  0  0  0  0  0  0  0
    0.7859   15.2920  -40.9220 C   0  0  0  0  0  0  0  0  0  0  0  0
    1.0862   16.2203  -39.9414 C   0  0  0  0  0  0  0  0  0  0  0  0
    1.3770   17.5739  -40.0992 C   0  0  0  0  0  0  0  0  0  0  0  0
    1.5437   18.3834  -38.9690 C   0  0  0  0  0  0  0  0  0  0  0  0
    1.4667   17.8491  -37.6733 C   0  0  0  0  0  0  0  0  0  0  0  0
    1.2284   16.4814  -37.5669 C   0  0  0  0  0  0  0  0  0  0  0  0
    0.4509   13.9430  -40.5862 C   0  0  0  0  0  0  0  0  0  0  0  0
    0.5532   13.4669  -39.2557 C   0  0  0  0  0  0  0  0  0  0  0  0
    0.8245   14.4445  -38.2951 C   0  0  0  0  0  0  0  0  0  0  0  0
    1.0572   15.7308  -38.6865 C   0  0  0  0  0  0  0  0  0  0  0  0
    0.8406   14.3003  -36.9218 O   0  0  0  0  0  0  0  0  0  0  0  0
    1.0863   15.6061  -36.4493 C   0  0  0  0  0  0  0  0  0  0  0  0
    1.1493   15.8573  -35.2522 O   0  0  0  0  0  0  0  0  0  0  0  0
    3.8493   12.6022  -39.9051 H   0  0  0  0  0  0  0  0  0  0  0  0
    2.2955   13.7180  -41.1730 H   0  0  0  0  0  0  0  0  0  0  0  0
    6.8281   15.0388  -41.8647 H   0  0  0  0  0  0  0  0  0  0  0  0
    5.0348   16.3267  -43.0300 H   0  0  0  0  0  0  0  0  0  0  0  0
    1.4233   17.9971  -41.0976 H   0  0  0  0  0  0  0  0  0  0  0  0
    1.7219   19.4402  -39.1099 H   0  0  0  0  0  0  0  0  0  0  0  0
    1.5961   18.4799  -36.7999 H   0  0  0  0  0  0  0  0  0  0  0  0
    0.4621   13.1964  -41.3961 H   0  0  0  0  0  0  0  0  0  0  0  0
    0.4364   12.4086  -39.0225 H   0  0  0  0  0  0  0  0  0  0  0  0
  1  2  2  0  0  0  0
  2  3  2  0  0  0  0
  2  4  1  0  0  0  0
  4  5  2  0  0  0  0
  4  7  1  0  0  0  0
  5  6  1  0  0  0  0
  5 26  1  0  0  0  0
  6  9  2  0  0  0  0
  6 27  1  0  0  0  0
  7  8  2  0  0  0  0
  7 28  1  0  0  0  0
  8  9  1  0  0  0  0
  8 29  1  0  0  0  0
  9 10  1  0  0  0  0
 10 11  2  0  0  0  0
 10 12  1  0  0  0  0
 12 13  1  0  0  0  0
 13 14  2  0  0  0  0
 13 19  1  0  0  0  0
 14 15  1  0  0  0  0
 14 22  1  0  0  0  0
 15 16  2  0  0  0  0
 15 30  1  0  0  0  0
 16 17  1  0  0  0  0
 16 31  1  0  0  0  0
 17 18  2  0  0  0  0
 17 32  1  0  0  0  0
 18 22  1  0  0  0  0
 18 24  1  0  0  0  0
 19 20  2  0  0  0  0
 19 33  1  0  0  0  0
 20 21  1  0  0  0  0
 20 34  1  0  0  0  0
 21 22  2  0  0  0  0
 21 23  1  0  0  0  0
 23 24  1  0  0  0  0
 24 25  2  0  0  0  0
M  END
$$$$
