CGB
 OpenBabel04111919303D

 26 27  0  0  1  0  0  0  0  0999 V2000
   20.6129  -20.6486   22.6231 O   0  0  0  0  0  0  0  0  0  0  0  0
   20.5916  -19.4906   23.4080 C   0  0  2  0  0  0  0  0  0  0  0  0
   19.2008  -19.0606   23.6958 N   0  3  0  0  0  0  0  0  0  0  0  0
   21.0978  -18.2563   22.6456 C   0  0  0  0  0  0  0  0  0  0  0  0
   20.3446  -17.0630   23.2546 C   0  0  0  0  0  0  0  0  0  0  0  0
   19.3725  -17.6889   24.2637 C   0  0  2  0  0  0  0  0  0  0  0  0
   21.2714  -19.7730   24.7984 C   0  0  1  0  0  0  0  0  0  0  0  0
   22.5555  -20.4147   24.6647 O   0  0  0  0  0  0  0  0  0  0  0  0
   21.4022  -18.4564   25.5991 C   0  0  2  0  0  0  0  0  0  0  0  0
   21.9024  -18.7565   26.8967 O   0  0  0  0  0  0  0  0  0  0  0  0
   20.0133  -17.7826   25.6730 C   0  0  1  0  0  0  0  0  0  0  0  0
   20.0549  -16.4778   26.2373 O   0  0  0  0  0  0  0  0  0  0  0  0
   21.5480  -20.9534   22.6365 H   0  0  0  0  0  0  0  0  0  0  0  0
   18.6911  -19.0601   22.8070 H   0  0  0  0  0  0  0  0  0  0  0  0
   20.8344  -18.3435   21.5906 H   0  0  0  0  0  0  0  0  0  0  0  0
   22.1868  -18.1514   22.6954 H   0  0  0  0  0  0  0  0  0  0  0  0
   19.8058  -16.5241   22.4719 H   0  0  0  0  0  0  0  0  0  0  0  0
   21.0353  -16.3493   23.7141 H   0  0  0  0  0  0  0  0  0  0  0  0
   18.4010  -17.1808   24.2821 H   0  0  0  0  0  0  0  0  0  0  0  0
   20.6533  -20.4877   25.3648 H   0  0  0  0  0  0  0  0  0  0  0  0
   22.7022  -20.9353   25.4818 H   0  0  0  0  0  0  0  0  0  0  0  0
   22.1467  -17.7926   25.1479 H   0  0  0  0  0  0  0  0  0  0  0  0
   22.8500  -18.9905   26.8154 H   0  0  0  0  0  0  0  0  0  0  0  0
   19.3657  -18.3760   26.3264 H   0  0  0  0  0  0  0  0  0  0  0  0
   20.9349  -16.0680   26.1281 H   0  0  0  0  0  0  0  0  0  0  0  0
   18.6947  -19.7281   24.3080 H   0  0  0  0  0  0  0  0  0  0  0  0
  1 13  1  0  0  0  0
  2  1  1  6  0  0  0
  2  3  1  0  0  0  0
  2  4  1  0  0  0  0
  2  7  1  0  0  0  0
  3  6  1  0  0  0  0
  3 14  1  0  0  0  0
  3 26  1  0  0  0  0
  4  5  1  0  0  0  0
  4 15  1  0  0  0  0
  4 16  1  0  0  0  0
  5  6  1  0  0  0  0
  5 17  1  0  0  0  0
  5 18  1  0  0  0  0
  6 11  1  0  0  0  0
  6 19  1  1  0  0  0
  7  8  1  0  0  0  0
  7  9  1  0  0  0  0
  7 20  1  1  0  0  0
  8 21  1  0  0  0  0
  9 10  1  0  0  0  0
  9 11  1  0  0  0  0
  9 22  1  6  0  0  0
 10 23  1  0  0  0  0
 11 12  1  0  0  0  0
 11 24  1  1  0  0  0
 12 25  1  0  0  0  0
M  CHG  1   3   1
M  END
$$$$
