CLM
 OpenBabel04111923003D

 32 32  0  0  1  0  0  0  0  0999 V2000
  -17.5968   10.0764   24.5474 C   0  0  0  0  0  0  0  0  0  0  0  0
  -18.6101    9.9013   23.0970 Cl  0  0  0  0  0  0  0  0  0  0  0  0
  -15.8925    9.7802   24.1476 Cl  0  0  0  0  0  0  0  0  0  0  0  0
  -17.7404   11.4528   25.1906 C   0  0  0  0  0  0  0  0  0  0  0  0
  -17.0361   11.7840   26.1616 O   0  0  0  0  0  0  0  0  0  0  0  0
  -18.7133   12.2980   24.7196 N   0  0  0  0  0  0  0  0  0  0  0  0
  -18.9770   13.5959   25.3267 C   0  0  2  0  0  0  0  0  0  0  0  0
  -20.3857   13.6335   25.9152 C   0  0  0  0  0  0  0  0  0  0  0  0
  -21.3224   13.1694   24.9443 O   0  0  0  0  0  0  0  0  0  0  0  0
  -18.8175   14.7721   24.3227 C   0  0  2  0  0  0  0  0  0  0  0  0
  -18.7760   14.3038   22.9696 O   0  0  0  0  0  0  0  0  0  0  0  0
  -17.5873   15.5880   24.6638 C   0  0  0  0  0  0  0  0  0  0  0  0
  -16.6002   15.8231   23.7036 C   0  0  0  0  0  0  0  0  0  0  0  0
  -15.4567   16.5431   24.0349 C   0  0  0  0  0  0  0  0  0  0  0  0
  -15.3019   17.0273   25.3360 C   0  0  0  0  0  0  0  0  0  0  0  0
  -14.1048   17.7795   25.6974 N   0  0  0  0  0  0  0  0  0  0  0  0
  -13.8919   17.9812   26.9029 O   0  0  0  0  0  0  0  0  0  0  0  0
  -13.3755   18.1854   24.7756 O   0  0  0  0  0  0  0  0  0  0  0  0
  -16.2785   16.8094   26.3129 C   0  0  0  0  0  0  0  0  0  0  0  0
  -17.4230   16.1031   25.9666 C   0  0  0  0  0  0  0  0  0  0  0  0
  -17.9166    9.3281   25.2776 H   0  0  0  0  0  0  0  0  0  0  0  0
  -19.3320   11.9760   23.9817 H   0  0  0  0  0  0  0  0  0  0  0  0
  -18.2906   13.7289   26.1723 H   0  0  0  0  0  0  0  0  0  0  0  0
  -20.6620   14.6465   26.2305 H   0  0  0  0  0  0  0  0  0  0  0  0
  -20.4409   12.9817   26.7915 H   0  0  0  0  0  0  0  0  0  0  0  0
  -21.2876   13.7630   24.1765 H   0  0  0  0  0  0  0  0  0  0  0  0
  -19.6695   15.4619   24.3736 H   0  0  0  0  0  0  0  0  0  0  0  0
  -19.5540   13.7489   22.8114 H   0  0  0  0  0  0  0  0  0  0  0  0
  -16.7139   15.4299   22.6954 H   0  0  0  0  0  0  0  0  0  0  0  0
  -14.7007   16.7058   23.2705 H   0  0  0  0  0  0  0  0  0  0  0  0
  -16.1598   17.1749   27.3301 H   0  0  0  0  0  0  0  0  0  0  0  0
  -18.1688   15.9270   26.7411 H   0  0  0  0  0  0  0  0  0  0  0  0
  1  2  1  0  0  0  0
  1  3  1  0  0  0  0
  1  4  1  0  0  0  0
  1 21  1  0  0  0  0
  4  5  2  0  0  0  0
  4  6  1  0  0  0  0
  6  7  1  0  0  0  0
  6 22  1  0  0  0  0
  7  8  1  0  0  0  0
  7 10  1  0  0  0  0
  7 23  1  1  0  0  0
  8  9  1  0  0  0  0
  8 24  1  0  0  0  0
  8 25  1  0  0  0  0
  9 26  1  0  0  0  0
 10 11  1  0  0  0  0
 10 12  1  0  0  0  0
 10 27  1  1  0  0  0
 11 28  1  0  0  0  0
 12 13  2  0  0  0  0
 12 20  1  0  0  0  0
 13 14  1  0  0  0  0
 13 29  1  0  0  0  0
 14 15  2  0  0  0  0
 14 30  1  0  0  0  0
 15 16  1  0  0  0  0
 15 19  1  0  0  0  0
 16 17  2  0  0  0  0
 16 18  2  0  0  0  0
 19 20  2  0  0  0  0
 19 31  1  0  0  0  0
 20 32  1  0  0  0  0
M  END
$$$$
