CP6
 OpenBabel04111919503D

 30 31  0  0  0  0  0  0  0  0999 V2000
    2.3871   -1.8459    0.3047 N   0  0  0  0  0  0  0  0  0  0  0  0
    2.9672   -2.2598   -0.8188 C   0  0  0  0  0  0  0  0  0  0  0  0
    1.8305   -2.7851    1.0950 C   0  0  0  0  0  0  0  0  0  0  0  0
    1.8591   -4.1516    0.7952 C   0  0  0  0  0  0  0  0  0  0  0  0
    2.4643   -4.4671   -0.4136 C   0  0  0  0  0  0  0  0  0  0  0  0
    3.0160   -3.5290   -1.2273 N   0  0  0  0  0  0  0  0  0  0  0  0
    1.3297   -5.1544    1.7314 C   0  0  0  0  0  0  0  0  0  0  0  0
   -0.0328   -5.1961    2.0884 C   0  0  0  0  0  0  0  0  0  0  0  0
   -0.4972   -6.0980    3.0465 C   0  0  0  0  0  0  0  0  0  0  0  0
    0.3930   -6.9831    3.6511 C   0  0  0  0  0  0  0  0  0  0  0  0
    1.7413   -6.9685    3.3122 C   0  0  0  0  0  0  0  0  0  0  0  0
    2.2057   -6.0630    2.3622 C   0  0  0  0  0  0  0  0  0  0  0  0
    1.3206   -2.3046    2.2855 N   0  0  0  0  0  0  0  0  0  0  0  0
    3.5631   -1.3388   -1.6271 N   0  0  0  0  0  0  0  0  0  0  0  0
    2.5762   -5.8763   -0.9591 C   0  0  0  0  0  0  0  0  0  0  0  0
    4.0225   -6.3553   -0.9928 C   0  0  0  0  0  0  0  0  0  0  0  0
   -0.1759   -8.0996    4.8287 Cl  0  0  0  0  0  0  0  0  0  0  0  0
   -0.7371   -4.4953    1.6346 H   0  0  0  0  0  0  0  0  0  0  0  0
   -1.5474   -6.1001    3.3228 H   0  0  0  0  0  0  0  0  0  0  0  0
    2.4424   -7.6456    3.7894 H   0  0  0  0  0  0  0  0  0  0  0  0
    3.2649   -6.0486    2.1157 H   0  0  0  0  0  0  0  0  0  0  0  0
    0.7667   -2.8877    2.8920 H   0  0  0  0  0  0  0  0  0  0  0  0
    1.2797   -1.2988    2.3802 H   0  0  0  0  0  0  0  0  0  0  0  0
    3.6747   -0.4043   -1.2689 H   0  0  0  0  0  0  0  0  0  0  0  0
    4.0880   -1.6902   -2.4085 H   0  0  0  0  0  0  0  0  0  0  0  0
    2.1714   -5.8815   -1.9821 H   0  0  0  0  0  0  0  0  0  0  0  0
    1.9668   -6.5862   -0.3938 H   0  0  0  0  0  0  0  0  0  0  0  0
    4.0805   -7.3649   -1.4103 H   0  0  0  0  0  0  0  0  0  0  0  0
    4.4601   -6.3744    0.0100 H   0  0  0  0  0  0  0  0  0  0  0  0
    4.6468   -5.7011   -1.6140 H   0  0  0  0  0  0  0  0  0  0  0  0
  1  2  2  0  0  0  0
  1  3  1  0  0  0  0
  2  6  1  0  0  0  0
  2 14  1  0  0  0  0
  3  4  2  0  0  0  0
  3 13  1  0  0  0  0
  4  5  1  0  0  0  0
  4  7  1  0  0  0  0
  5  6  2  0  0  0  0
  5 15  1  0  0  0  0
  7  8  2  0  0  0  0
  7 12  1  0  0  0  0
  8  9  1  0  0  0  0
  8 18  1  0  0  0  0
  9 10  2  0  0  0  0
  9 19  1  0  0  0  0
 10 11  1  0  0  0  0
 10 17  1  0  0  0  0
 11 12  2  0  0  0  0
 11 20  1  0  0  0  0
 12 21  1  0  0  0  0
 13 22  1  0  0  0  0
 13 23  1  0  0  0  0
 14 24  1  0  0  0  0
 14 25  1  0  0  0  0
 15 16  1  0  0  0  0
 15 26  1  0  0  0  0
 15 27  1  0  0  0  0
 16 28  1  0  0  0  0
 16 29  1  0  0  0  0
 16 30  1  0  0  0  0
M  END
$$$$
