CTT
 OpenBabel04111921283D

 87 90  0  0  1  0  0  0  0  0999 V2000
  -13.1974   -2.0434   57.4452 O   0  0  0  0  0  0  0  0  0  0  0  0
  -12.1351   -2.6217   56.6981 C   0  0  1  0  0  0  0  0  0  0  0  0
  -12.4090   -2.5204   55.1843 C   0  0  2  0  0  0  0  0  0  0  0  0
  -13.6695   -3.0972   54.8439 O   0  0  0  0  0  0  0  0  0  0  0  0
  -11.2518   -3.2050   54.4509 C   0  0  1  0  0  0  0  0  0  0  0  0
  -11.4464   -3.3030   53.0552 O   0  0  0  0  0  0  0  0  0  0  0  0
  -10.9201   -1.9543   57.0256 O   0  0  0  0  0  0  0  0  0  0  0  0
   -9.7824   -2.5276   56.3464 C   0  0  2  0  0  0  0  0  0  0  0  0
   -8.5392   -1.7963   56.8508 C   0  0  0  0  0  0  0  0  0  0  0  0
   -8.6650   -0.3930   56.6319 O   0  0  0  0  0  0  0  0  0  0  0  0
   -9.9392   -2.4346   54.8027 C   0  0  1  0  0  0  0  0  0  0  0  0
   -8.8307   -3.0452   54.1405 O   0  0  0  0  0  0  0  0  0  0  0  0
   -7.9686   -2.1599   53.3838 C   0  0  1  0  0  0  0  0  0  0  0  0
   -6.6670   -2.9754   53.2222 C   0  0  2  0  0  0  0  0  0  0  0  0
   -6.0010   -3.0638   54.4953 O   0  0  0  0  0  0  0  0  0  0  0  0
   -5.7047   -2.3938   52.1866 C   0  0  1  0  0  0  0  0  0  0  0  0
   -4.6186   -3.3106   52.0187 O   0  0  0  0  0  0  0  0  0  0  0  0
   -8.5492   -1.8187   52.1205 O   0  0  0  0  0  0  0  0  0  0  0  0
   -7.6089   -1.1992   51.1976 C   0  0  2  0  0  0  0  0  0  0  0  0
   -8.3880   -0.8376   49.9230 C   0  0  0  0  0  0  0  0  0  0  0  0
   -9.4318    0.0822   50.2334 O   0  0  0  0  0  0  0  0  0  0  0  0
   -6.4224   -2.1446   50.8566 C   0  0  1  0  0  0  0  0  0  0  0  0
   -5.5093   -1.5224   49.9164 O   0  0  0  0  0  0  0  0  0  0  0  0
   -5.0316   -2.3977   48.8599 C   0  0  1  0  0  0  0  0  0  0  0  0
   -4.3152   -1.5429   47.7998 C   0  0  2  0  0  0  0  0  0  0  0  0
   -5.2275   -0.5809   47.2528 O   0  0  0  0  0  0  0  0  0  0  0  0
   -3.7425   -2.4274   46.6660 C   0  0  1  0  0  0  0  0  0  0  0  0
   -2.9174   -1.6345   45.7864 O   0  0  0  0  0  0  0  0  0  0  0  0
   -4.0670   -3.3306   49.3251 O   0  0  0  0  0  0  0  0  0  0  0  0
   -3.7467   -4.3087   48.2909 C   0  0  2  0  0  0  0  0  0  0  0  0
   -3.0245   -5.4639   48.9755 C   0  0  0  0  0  0  0  0  0  0  0  0
   -3.8247   -5.8862   50.0834 O   0  0  0  0  0  0  0  0  0  0  0  0
   -2.9253   -3.6618   47.1507 C   0  0  1  0  0  0  0  0  0  0  0  0
   -2.7656   -4.4920   45.9757 O   0  0  0  0  0  0  0  0  0  0  0  0
   -1.5469   -5.2217   45.7319 C   0  0  1  0  0  0  0  0  0  0  0  0
   -1.4610   -5.5617   44.1930 C   0  0  2  0  0  0  0  0  0  0  0  0
   -1.5099   -6.9874   43.9812 O   0  0  0  0  0  0  0  0  0  0  0  0
   -0.2177   -5.0119   43.4862 C   0  0  1  0  0  0  0  0  0  0  0  0
   -0.4354   -4.9416   42.0695 O   0  0  0  0  0  0  0  0  0  0  0  0
    0.0884   -3.6455   44.0721 C   0  0  2  0  0  0  0  0  0  0  0  0
    1.1248   -3.0178   43.3105 O   0  0  0  0  0  0  0  0  0  0  0  0
   -0.3963   -4.6307   46.3207 O   0  0  0  0  0  0  0  0  0  0  0  0
    0.5385   -3.9184   45.5100 C   0  0  2  0  0  0  0  0  0  0  0  0
    0.9430   -2.6349   46.2423 C   0  0  0  0  0  0  0  0  0  0  0  0
   -0.1513   -1.7209   46.3503 O   0  0  0  0  0  0  0  0  0  0  0  0
  -13.2827   -1.1229   57.1572 H   0  0  0  0  0  0  0  0  0  0  0  0
  -12.0761   -3.6702   57.0116 H   0  0  0  0  0  0  0  0  0  0  0  0
  -12.4554   -1.4676   54.8803 H   0  0  0  0  0  0  0  0  0  0  0  0
  -14.3460   -2.6465   55.3836 H   0  0  0  0  0  0  0  0  0  0  0  0
  -11.1563   -4.2548   54.7981 H   0  0  0  0  0  0  0  0  0  0  0  0
  -11.5268   -2.3971   52.7019 H   0  0  0  0  0  0  0  0  0  0  0  0
   -9.6824   -3.5791   56.6447 H   0  0  0  0  0  0  0  0  0  0  0  0
   -7.6371   -2.1436   56.3496 H   0  0  0  0  0  0  0  0  0  0  0  0
   -8.4086   -1.9593   57.9268 H   0  0  0  0  0  0  0  0  0  0  0  0
   -9.4600   -0.1215   57.1300 H   0  0  0  0  0  0  0  0  0  0  0  0
  -10.0590   -1.3921   54.4822 H   0  0  0  0  0  0  0  0  0  0  0  0
   -7.7852   -1.2485   53.9682 H   0  0  0  0  0  0  0  0  0  0  0  0
   -6.9224   -4.0027   52.9262 H   0  0  0  0  0  0  0  0  0  0  0  0
   -6.6066   -3.5568   55.0725 H   0  0  0  0  0  0  0  0  0  0  0  0
   -5.2584   -1.4649   52.5618 H   0  0  0  0  0  0  0  0  0  0  0  0
   -4.0894   -3.0003   51.2590 H   0  0  0  0  0  0  0  0  0  0  0  0
   -7.2493   -0.2659   51.6443 H   0  0  0  0  0  0  0  0  0  0  0  0
   -8.8486   -1.7240   49.4807 H   0  0  0  0  0  0  0  0  0  0  0  0
   -7.7382   -0.3666   49.1832 H   0  0  0  0  0  0  0  0  0  0  0  0
   -9.9717   -0.3498   50.9173 H   0  0  0  0  0  0  0  0  0  0  0  0
   -6.8079   -3.0858   50.4483 H   0  0  0  0  0  0  0  0  0  0  0  0
   -5.9027   -2.9047   48.4243 H   0  0  0  0  0  0  0  0  0  0  0  0
   -3.4989   -0.9751   48.2633 H   0  0  0  0  0  0  0  0  0  0  0  0
   -5.5482   -0.0574   48.0106 H   0  0  0  0  0  0  0  0  0  0  0  0
   -4.5786   -2.7796   46.0477 H   0  0  0  0  0  0  0  0  0  0  0  0
   -2.2055   -1.2689   46.3431 H   0  0  0  0  0  0  0  0  0  0  0  0
   -4.6900   -4.7049   47.8951 H   0  0  0  0  0  0  0  0  0  0  0  0
   -2.0415   -5.1575   49.3445 H   0  0  0  0  0  0  0  0  0  0  0  0
   -2.9230   -6.3163   48.3033 H   0  0  0  0  0  0  0  0  0  0  0  0
   -3.3226   -6.5435   50.5895 H   0  0  0  0  0  0  0  0  0  0  0  0
   -1.9543   -3.3167   47.5222 H   0  0  0  0  0  0  0  0  0  0  0  0
   -1.6686   -6.1786   46.2505 H   0  0  0  0  0  0  0  0  0  0  0  0
   -2.3506   -5.1590   43.6900 H   0  0  0  0  0  0  0  0  0  0  0  0
   -0.6606   -7.3678   44.2582 H   0  0  0  0  0  0  0  0  0  0  0  0
    0.6377   -5.6884   43.6139 H   0  0  0  0  0  0  0  0  0  0  0  0
    0.3846   -4.5862   41.6770 H   0  0  0  0  0  0  0  0  0  0  0  0
   -0.8085   -3.0174   44.0294 H   0  0  0  0  0  0  0  0  0  0  0  0
    1.2477   -2.1099   43.6459 H   0  0  0  0  0  0  0  0  0  0  0  0
    1.4453   -4.5436   45.4713 H   0  0  0  0  0  0  0  0  0  0  0  0
    1.7654   -2.1260   45.7325 H   0  0  0  0  0  0  0  0  0  0  0  0
    1.2748   -2.8752   47.2559 H   0  0  0  0  0  0  0  0  0  0  0  0
   -0.4588   -1.5153   45.4485 H   0  0  0  0  0  0  0  0  0  0  0  0
  1  2  1  0  0  0  0
  1 46  1  0  0  0  0
  2  3  1  0  0  0  0
  2  7  1  0  0  0  0
  2 47  1  1  0  0  0
  3  4  1  0  0  0  0
  3  5  1  0  0  0  0
  3 48  1  6  0  0  0
  4 49  1  0  0  0  0
  5  6  1  0  0  0  0
  5 11  1  0  0  0  0
  5 50  1  1  0  0  0
  6 51  1  0  0  0  0
  7  8  1  0  0  0  0
  8  9  1  0  0  0  0
  8 11  1  0  0  0  0
  8 52  1  1  0  0  0
  9 10  1  0  0  0  0
  9 53  1  0  0  0  0
  9 54  1  0  0  0  0
 10 55  1  0  0  0  0
 11 12  1  0  0  0  0
 11 56  1  6  0  0  0
 12 13  1  0  0  0  0
 13 14  1  0  0  0  0
 13 18  1  0  0  0  0
 13 57  1  1  0  0  0
 14 15  1  0  0  0  0
 14 16  1  0  0  0  0
 14 58  1  6  0  0  0
 15 59  1  0  0  0  0
 16 17  1  0  0  0  0
 16 22  1  0  0  0  0
 16 60  1  1  0  0  0
 17 61  1  0  0  0  0
 18 19  1  0  0  0  0
 19 20  1  0  0  0  0
 19 22  1  0  0  0  0
 19 62  1  1  0  0  0
 20 21  1  0  0  0  0
 20 63  1  0  0  0  0
 20 64  1  0  0  0  0
 21 65  1  0  0  0  0
 22 23  1  0  0  0  0
 22 66  1  6  0  0  0
 23 24  1  0  0  0  0
 24 25  1  0  0  0  0
 24 29  1  0  0  0  0
 24 67  1  6  0  0  0
 25 26  1  0  0  0  0
 25 27  1  0  0  0  0
 25 68  1  1  0  0  0
 26 69  1  0  0  0  0
 27 28  1  0  0  0  0
 27 33  1  0  0  0  0
 27 70  1  6  0  0  0
 28 71  1  0  0  0  0
 29 30  1  0  0  0  0
 30 31  1  0  0  0  0
 30 33  1  0  0  0  0
 30 72  1  6  0  0  0
 31 32  1  0  0  0  0
 31 73  1  0  0  0  0
 31 74  1  0  0  0  0
 32 75  1  0  0  0  0
 33 34  1  0  0  0  0
 33 76  1  1  0  0  0
 34 35  1  0  0  0  0
 35 36  1  0  0  0  0
 35 42  1  0  0  0  0
 35 77  1  1  0  0  0
 36 37  1  0  0  0  0
 36 38  1  0  0  0  0
 36 78  1  6  0  0  0
 37 79  1  0  0  0  0
 38 39  1  0  0  0  0
 38 40  1  0  0  0  0
 38 80  1  1  0  0  0
 39 81  1  0  0  0  0
 40 41  1  0  0  0  0
 40 43  1  0  0  0  0
 40 82  1  6  0  0  0
 41 83  1  0  0  0  0
 42 43  1  0  0  0  0
 43 44  1  0  0  0  0
 43 84  1  6  0  0  0
 44 45  1  0  0  0  0
 44 85  1  0  0  0  0
 44 86  1  0  0  0  0
 45 87  1  0  0  0  0
M  END
$$$$
