CWX
 OpenBabel04111918233D

 52 54  0  0  1  0  0  0  0  0999 V2000
  -13.0093   48.5566  -14.4491 C   0  0  0  0  0  0  0  0  0  0  0  0
  -13.4688   48.1067  -13.1487 N   0  0  0  0  0  0  0  0  0  0  0  0
  -13.0123   46.6301  -12.5282 S   0  0  0  0  0  0  0  0  0  0  0  0
  -13.1317   45.6424  -13.5759 O   0  0  0  0  0  0  0  0  0  0  0  0
  -13.6939   46.4916  -11.2588 O   0  0  0  0  0  0  0  0  0  0  0  0
  -11.2953   46.8032  -12.1556 C   0  0  0  0  0  0  0  0  0  0  0  0
  -10.6786   48.0458  -12.0730 C   0  0  0  0  0  0  0  0  0  0  0  0
   -9.3106   48.1199  -11.7996 C   0  0  0  0  0  0  0  0  0  0  0  0
  -10.5650   45.6385  -11.9634 C   0  0  0  0  0  0  0  0  0  0  0  0
   -9.2047   45.7252  -11.6822 C   0  0  0  0  0  0  0  0  0  0  0  0
   -8.5377   46.9627  -11.5817 C   0  0  0  0  0  0  0  0  0  0  0  0
   -7.0886   47.0312  -11.2691 C   0  0  0  0  0  0  0  0  0  0  0  0
   -6.3635   48.2362  -11.3293 C   0  0  0  0  0  0  0  0  0  0  0  0
   -5.0003   48.2924  -11.0343 C   0  0  0  0  0  0  0  0  0  0  0  0
   -6.3716   45.8813  -10.8939 C   0  0  0  0  0  0  0  0  0  0  0  0
   -5.0148   45.9264  -10.6190 C   0  0  0  0  0  0  0  0  0  0  0  0
   -4.3324   47.1299  -10.6937 C   0  0  0  0  0  0  0  0  0  0  0  0
   -3.0205   47.0095  -10.4053 O   0  0  0  0  0  0  0  0  0  0  0  0
   -2.2230   48.1804  -10.2239 C   0  0  1  0  0  0  0  0  0  0  0  0
   -2.7623   49.1263   -9.2907 O   0  0  0  0  0  0  0  0  0  0  0  0
   -2.9555   48.6201   -7.9655 C   0  0  2  0  0  0  0  0  0  0  0  0
   -3.4600   49.7781   -7.0941 C   0  0  0  0  0  0  0  0  0  0  0  0
   -2.4417   50.7651   -6.9423 O   0  0  0  0  0  0  0  0  0  0  0  0
   -1.6800   48.0042   -7.3692 C   0  0  1  0  0  0  0  0  0  0  0  0
   -2.0043   47.3354   -6.1388 O   0  0  0  0  0  0  0  0  0  0  0  0
   -1.0866   46.9889   -8.3506 C   0  0  2  0  0  0  0  0  0  0  0  0
    0.1808   46.5086   -7.8767 O   0  0  0  0  0  0  0  0  0  0  0  0
   -0.8819   47.6285   -9.7317 C   0  0  2  0  0  0  0  0  0  0  0  0
    0.1183   48.6504   -9.6965 O   0  0  0  0  0  0  0  0  0  0  0  0
  -13.5149   49.4936  -14.6986 H   0  0  0  0  0  0  0  0  0  0  0  0
  -13.2216   47.8294  -15.2349 H   0  0  0  0  0  0  0  0  0  0  0  0
  -11.9367   48.7623  -14.4280 H   0  0  0  0  0  0  0  0  0  0  0  0
  -14.2347   48.5710  -12.6658 H   0  0  0  0  0  0  0  0  0  0  0  0
  -11.2264   48.9698  -12.2152 H   0  0  0  0  0  0  0  0  0  0  0  0
   -8.8744   49.1098  -11.7515 H   0  0  0  0  0  0  0  0  0  0  0  0
  -11.0377   44.6624  -12.0266 H   0  0  0  0  0  0  0  0  0  0  0  0
   -8.6887   44.7786  -11.5447 H   0  0  0  0  0  0  0  0  0  0  0  0
   -6.8317   49.1744  -11.6099 H   0  0  0  0  0  0  0  0  0  0  0  0
   -4.5015   49.2542  -11.0729 H   0  0  0  0  0  0  0  0  0  0  0  0
   -6.8389   44.9083  -10.8043 H   0  0  0  0  0  0  0  0  0  0  0  0
   -4.4930   45.0135  -10.3458 H   0  0  0  0  0  0  0  0  0  0  0  0
   -2.0876   48.6875  -11.1748 H   0  0  0  0  0  0  0  0  0  0  0  0
   -3.7545   47.8673   -7.9891 H   0  0  0  0  0  0  0  0  0  0  0  0
   -3.7304   49.4271   -6.0940 H   0  0  0  0  0  0  0  0  0  0  0  0
   -4.3365   50.2460   -7.5542 H   0  0  0  0  0  0  0  0  0  0  0  0
   -2.8450   51.5362   -6.5106 H   0  0  0  0  0  0  0  0  0  0  0  0
   -0.9203   48.7640   -7.1550 H   0  0  0  0  0  0  0  0  0  0  0  0
   -2.2039   48.0263   -5.4839 H   0  0  0  0  0  0  0  0  0  0  0  0
   -1.7610   46.1227   -8.4092 H   0  0  0  0  0  0  0  0  0  0  0  0
    0.4149   45.7427   -8.4286 H   0  0  0  0  0  0  0  0  0  0  0  0
   -0.5186   46.8594  -10.4234 H   0  0  0  0  0  0  0  0  0  0  0  0
    0.8776   48.2728   -9.2142 H   0  0  0  0  0  0  0  0  0  0  0  0
  1  2  1  0  0  0  0
  1 30  1  0  0  0  0
  1 31  1  0  0  0  0
  1 32  1  0  0  0  0
  2  3  1  0  0  0  0
  2 33  1  0  0  0  0
  3  4  2  0  0  0  0
  3  5  2  0  0  0  0
  3  6  1  0  0  0  0
  6  7  2  0  0  0  0
  6  9  1  0  0  0  0
  7  8  1  0  0  0  0
  7 34  1  0  0  0  0
  8 11  2  0  0  0  0
  8 35  1  0  0  0  0
  9 10  2  0  0  0  0
  9 36  1  0  0  0  0
 10 11  1  0  0  0  0
 10 37  1  0  0  0  0
 11 12  1  0  0  0  0
 12 13  2  0  0  0  0
 12 15  1  0  0  0  0
 13 14  1  0  0  0  0
 13 38  1  0  0  0  0
 14 17  2  0  0  0  0
 14 39  1  0  0  0  0
 15 16  2  0  0  0  0
 15 40  1  0  0  0  0
 16 17  1  0  0  0  0
 16 41  1  0  0  0  0
 17 18  1  0  0  0  0
 18 19  1  0  0  0  0
 19 20  1  0  0  0  0
 19 28  1  0  0  0  0
 19 42  1  6  0  0  0
 20 21  1  0  0  0  0
 21 22  1  0  0  0  0
 21 24  1  0  0  0  0
 21 43  1  6  0  0  0
 22 23  1  0  0  0  0
 22 44  1  0  0  0  0
 22 45  1  0  0  0  0
 23 46  1  0  0  0  0
 24 25  1  0  0  0  0
 24 26  1  0  0  0  0
 24 47  1  1  0  0  0
 25 48  1  0  0  0  0
 26 27  1  0  0  0  0
 26 28  1  0  0  0  0
 26 49  1  6  0  0  0
 27 50  1  0  0  0  0
 28 29  1  0  0  0  0
 28 51  1  6  0  0  0
 29 52  1  0  0  0  0
M  END
$$$$
