D8X
 OpenBabel04111920033D

 32 31  0  0  1  0  0  0  0  0999 V2000
  -42.4800  -11.3686   12.1385 O   0  0  0  0  0  0  0  0  0  0  0  0
  -42.9814  -11.9163   13.4782 P   0  0  0  0  0  0  0  0  0  0  0  0
  -44.2814  -11.2468   13.9564 O   0  0  0  0  0  0  0  0  0  0  0  0
  -42.8942  -13.3827   13.6802 O   0  0  0  0  0  0  0  0  0  0  0  0
  -41.8803  -11.2456   14.5403 O   0  0  0  0  0  0  0  0  0  0  0  0
  -40.5285  -11.7112   14.5364 C   0  0  0  0  0  0  0  0  0  0  0  0
  -39.6366  -10.6815   13.8316 C   0  0  2  0  0  0  0  0  0  0  0  0
  -39.8222  -10.7722   12.4139 O   0  0  0  0  0  0  0  0  0  0  0  0
  -38.1415  -10.8774   14.1680 C   0  0  0  0  0  0  0  0  0  0  0  0
  -37.6563  -12.1475   13.7804 O   0  0  0  0  0  0  0  0  0  0  0  0
  -37.9248  -10.7471   15.5824 O   0  0  0  0  0  0  0  0  0  0  0  0
  -37.3377   -9.7432   13.5497 C   0  0  0  0  0  0  0  0  0  0  0  0
  -37.4236   -8.6081   14.0586 O   0  0  0  0  0  0  0  0  0  0  0  0
  -36.3200  -10.0469   12.4665 C   0  0  0  0  0  0  0  0  0  0  0  0
  -36.0130   -8.7774   11.6737 C   0  0  0  0  0  0  0  0  0  0  0  0
  -35.1024   -9.1131   10.5091 C   0  0  0  0  0  0  0  0  0  0  0  0
  -35.3377   -7.6993   12.5278 C   0  0  0  0  0  0  0  0  0  0  0  0
  -40.4671  -12.6812   14.0249 H   0  0  0  0  0  0  0  0  0  0  0  0
  -40.2103  -11.8441   15.5785 H   0  0  0  0  0  0  0  0  0  0  0  0
  -39.9525   -9.6748   14.1504 H   0  0  0  0  0  0  0  0  0  0  0  0
  -40.8223  -10.7532   12.2897 H   0  0  0  0  0  0  0  0  0  0  0  0
  -36.7227  -12.1517   14.0233 H   0  0  0  0  0  0  0  0  0  0  0  0
  -38.3065   -9.8712   15.8136 H   0  0  0  0  0  0  0  0  0  0  0  0
  -36.7196  -10.8272   11.7971 H   0  0  0  0  0  0  0  0  0  0  0  0
  -35.3997  -10.4526   12.9258 H   0  0  0  0  0  0  0  0  0  0  0  0
  -36.9621   -8.3820   11.2907 H   0  0  0  0  0  0  0  0  0  0  0  0
  -34.8823   -8.2113    9.9320 H   0  0  0  0  0  0  0  0  0  0  0  0
  -35.5780   -9.8446    9.8513 H   0  0  0  0  0  0  0  0  0  0  0  0
  -34.1601   -9.5332   10.8758 H   0  0  0  0  0  0  0  0  0  0  0  0
  -35.9408   -7.3821   13.3761 H   0  0  0  0  0  0  0  0  0  0  0  0
  -35.1648   -6.7921   11.9504 H   0  0  0  0  0  0  0  0  0  0  0  0
  -34.3863   -8.0514   12.9324 H   0  0  0  0  0  0  0  0  0  0  0  0
  1  2  2  0  0  0  0
  2  3  1  0  0  0  0
  2  4  1  0  0  0  0
  2  5  1  0  0  0  0
  5  6  1  0  0  0  0
  6  7  1  0  0  0  0
  6 18  1  0  0  0  0
  6 19  1  0  0  0  0
  7  8  1  0  0  0  0
  7  9  1  0  0  0  0
  7 20  1  1  0  0  0
  8 21  1  0  0  0  0
  9 10  1  0  0  0  0
  9 11  1  0  0  0  0
  9 12  1  0  0  0  0
 10 22  1  0  0  0  0
 11 23  1  0  0  0  0
 12 13  2  0  0  0  0
 12 14  1  0  0  0  0
 14 15  1  0  0  0  0
 14 24  1  0  0  0  0
 14 25  1  0  0  0  0
 15 16  1  0  0  0  0
 15 17  1  0  0  0  0
 15 26  1  0  0  0  0
 16 27  1  0  0  0  0
 16 28  1  0  0  0  0
 16 29  1  0  0  0  0
 17 30  1  0  0  0  0
 17 31  1  0  0  0  0
 17 32  1  0  0  0  0
M  END
$$$$
