DAO
 OpenBabel04111921513D

 37 36  0  0  0  0  0  0  0  0999 V2000
   -6.8978   15.8964   15.2062 O   0  0  0  0  0  0  0  0  0  0  0  0
   -4.7469   16.2547   15.8861 O   0  0  0  0  0  0  0  0  0  0  0  0
   -5.7749   16.4614   15.1729 C   0  0  0  0  0  0  0  0  0  0  0  0
   -5.5950   17.5773   14.1287 C   0  0  0  0  0  0  0  0  0  0  0  0
   -6.8630   17.9864   13.3835 C   0  0  0  0  0  0  0  0  0  0  0  0
   -6.6309   19.1642   12.4312 C   0  0  0  0  0  0  0  0  0  0  0  0
   -7.9546   19.6800   11.8565 C   0  0  0  0  0  0  0  0  0  0  0  0
   -7.7806   20.7176   10.7419 C   0  0  0  0  0  0  0  0  0  0  0  0
   -6.9476   21.9416   11.1164 C   0  0  0  0  0  0  0  0  0  0  0  0
   -7.5570   22.7429   12.2641 C   0  0  0  0  0  0  0  0  0  0  0  0
   -6.6634   23.9144   12.6515 C   0  0  0  0  0  0  0  0  0  0  0  0
   -7.2536   24.7799   13.7590 C   0  0  0  0  0  0  0  0  0  0  0  0
   -7.4162   24.0792   15.1076 C   0  0  0  0  0  0  0  0  0  0  0  0
   -7.9398   25.0806   16.1215 C   0  0  0  0  0  0  0  0  0  0  0  0
   -4.8431   17.2347   13.4084 H   0  0  0  0  0  0  0  0  0  0  0  0
   -5.1799   18.4530   14.6429 H   0  0  0  0  0  0  0  0  0  0  0  0
   -7.6404   18.2531   14.1093 H   0  0  0  0  0  0  0  0  0  0  0  0
   -7.2350   17.1308   12.8055 H   0  0  0  0  0  0  0  0  0  0  0  0
   -5.9705   18.8511   11.6140 H   0  0  0  0  0  0  0  0  0  0  0  0
   -6.1266   19.9729   12.9719 H   0  0  0  0  0  0  0  0  0  0  0  0
   -8.5604   20.1046   12.6657 H   0  0  0  0  0  0  0  0  0  0  0  0
   -8.5302   18.8403   11.4496 H   0  0  0  0  0  0  0  0  0  0  0  0
   -8.7754   21.0495   10.4177 H   0  0  0  0  0  0  0  0  0  0  0  0
   -7.3121   20.2344    9.8773 H   0  0  0  0  0  0  0  0  0  0  0  0
   -6.8612   22.5855   10.2318 H   0  0  0  0  0  0  0  0  0  0  0  0
   -5.9285   21.6317   11.3758 H   0  0  0  0  0  0  0  0  0  0  0  0
   -7.6936   22.0944   13.1343 H   0  0  0  0  0  0  0  0  0  0  0  0
   -8.5475   23.1095   11.9653 H   0  0  0  0  0  0  0  0  0  0  0  0
   -6.5098   24.5520   11.7716 H   0  0  0  0  0  0  0  0  0  0  0  0
   -5.6778   23.5444   12.9576 H   0  0  0  0  0  0  0  0  0  0  0  0
   -8.2298   25.1635   13.4384 H   0  0  0  0  0  0  0  0  0  0  0  0
   -6.5979   25.6471   13.8952 H   0  0  0  0  0  0  0  0  0  0  0  0
   -6.4537   23.6740   15.4496 H   0  0  0  0  0  0  0  0  0  0  0  0
   -8.1192   23.2423   15.0333 H   0  0  0  0  0  0  0  0  0  0  0  0
   -8.0713   24.6135   17.0980 H   0  0  0  0  0  0  0  0  0  0  0  0
   -8.9064   25.4810   15.8022 H   0  0  0  0  0  0  0  0  0  0  0  0
   -7.2435   25.9172   16.2338 H   0  0  0  0  0  0  0  0  0  0  0  0
  1  3  2  0  0  0  0
  2  3  1  0  0  0  0
  3  4  1  0  0  0  0
  4  5  1  0  0  0  0
  4 15  1  0  0  0  0
  4 16  1  0  0  0  0
  5  6  1  0  0  0  0
  5 17  1  0  0  0  0
  5 18  1  0  0  0  0
  6  7  1  0  0  0  0
  6 19  1  0  0  0  0
  6 20  1  0  0  0  0
  7  8  1  0  0  0  0
  7 21  1  0  0  0  0
  7 22  1  0  0  0  0
  8  9  1  0  0  0  0
  8 23  1  0  0  0  0
  8 24  1  0  0  0  0
  9 10  1  0  0  0  0
  9 25  1  0  0  0  0
  9 26  1  0  0  0  0
 10 11  1  0  0  0  0
 10 27  1  0  0  0  0
 10 28  1  0  0  0  0
 11 12  1  0  0  0  0
 11 29  1  0  0  0  0
 11 30  1  0  0  0  0
 12 13  1  0  0  0  0
 12 31  1  0  0  0  0
 12 32  1  0  0  0  0
 13 14  1  0  0  0  0
 13 33  1  0  0  0  0
 13 34  1  0  0  0  0
 14 35  1  0  0  0  0
 14 36  1  0  0  0  0
 14 37  1  0  0  0  0
M  END
$$$$
