DCL
 OpenBabel04111922383D

 24 23  0  0  1  0  0  0  0  0999 V2000
    2.1784    5.2284    8.8465 N   0  3  0  0  0  0  0  0  0  0  0  0
    2.2723    6.5455    9.5552 C   0  0  2  0  0  0  0  0  0  0  0  0
    1.6112    6.3663   10.9302 C   0  0  0  0  0  0  0  0  0  0  0  0
    1.6182    7.6480    8.7030 C   0  0  0  0  0  0  0  0  0  0  0  0
    1.5418    9.0123    9.4315 C   0  0  0  0  0  0  0  0  0  0  0  0
    0.8414   10.0542    8.5650 C   0  0  0  0  0  0  0  0  0  0  0  0
    2.9312    9.5081    9.8042 C   0  0  0  0  0  0  0  0  0  0  0  0
    0.1946    6.4614   10.8521 O   0  0  0  0  0  0  0  0  0  0  0  0
    2.6068    5.2656    7.9071 H   0  0  0  0  0  0  0  0  0  0  0  0
    2.6746    4.5035    9.3767 H   0  0  0  0  0  0  0  0  0  0  0  0
    3.3468    6.7248    9.6628 H   0  0  0  0  0  0  0  0  0  0  0  0
    1.9647    7.1564   11.6014 H   0  0  0  0  0  0  0  0  0  0  0  0
    1.8731    5.4064   11.3740 H   0  0  0  0  0  0  0  0  0  0  0  0
    0.5966    7.3488    8.4199 H   0  0  0  0  0  0  0  0  0  0  0  0
    2.1789    7.7653    7.7681 H   0  0  0  0  0  0  0  0  0  0  0  0
    0.9500    8.9124   10.3504 H   0  0  0  0  0  0  0  0  0  0  0  0
    0.7973   11.0141    9.0895 H   0  0  0  0  0  0  0  0  0  0  0  0
   -0.1843    9.7447    8.3428 H   0  0  0  0  0  0  0  0  0  0  0  0
    1.3730   10.2059    7.6217 H   0  0  0  0  0  0  0  0  0  0  0  0
    3.4579    8.7832   10.4407 H   0  0  0  0  0  0  0  0  0  0  0  0
    2.8720   10.4450   10.3720 H   0  0  0  0  0  0  0  0  0  0  0  0
    3.5428    9.6803    8.9119 H   0  0  0  0  0  0  0  0  0  0  0  0
   -0.1916    5.7831   10.2822 H   0  0  0  0  0  0  0  0  0  0  0  0
    1.2069    4.9114    8.7360 H   0  0  0  0  0  0  0  0  0  0  0  0
  1  2  1  0  0  0  0
  1  9  1  0  0  0  0
  1 10  1  0  0  0  0
  1 24  1  0  0  0  0
  2  3  1  0  0  0  0
  2  4  1  0  0  0  0
  2 11  1  1  0  0  0
  3  8  1  0  0  0  0
  3 12  1  0  0  0  0
  3 13  1  0  0  0  0
  4  5  1  0  0  0  0
  4 14  1  0  0  0  0
  4 15  1  0  0  0  0
  5  6  1  0  0  0  0
  5  7  1  0  0  0  0
  5 16  1  0  0  0  0
  6 17  1  0  0  0  0
  6 18  1  0  0  0  0
  6 19  1  0  0  0  0
  7 20  1  0  0  0  0
  7 21  1  0  0  0  0
  7 22  1  0  0  0  0
  8 23  1  0  0  0  0
M  CHG  1   1   1
M  END
$$$$
