DGJ
 OpenBabel04111918273D

 25 25  0  0  1  0  0  0  0  0999 V2000
   64.0531   28.8039   33.2216 C   0  0  0  0  0  0  0  0  0  0  0  0
   62.7820   27.9565   33.3242 C   0  0  2  0  0  0  0  0  0  0  0  0
   62.1304   27.8591   32.0667 O   0  0  0  0  0  0  0  0  0  0  0  0
   61.8268   28.5764   34.3485 C   0  0  1  0  0  0  0  0  0  0  0  0
   60.6701   27.7757   34.5306 O   0  0  0  0  0  0  0  0  0  0  0  0
   62.5185   28.7388   35.7036 C   0  0  1  0  0  0  0  0  0  0  0  0
   63.0204   27.4616   36.1562 O   0  0  0  0  0  0  0  0  0  0  0  0
   63.6883   29.7126   35.5283 C   0  0  2  0  0  0  0  0  0  0  0  0
   64.6559   29.0911   34.5507 N   0  3  0  0  0  0  0  0  0  0  0  0
   64.4267   29.9934   36.8366 C   0  0  0  0  0  0  0  0  0  0  0  0
   63.6221   30.7297   37.7428 O   0  0  0  0  0  0  0  0  0  0  0  0
   63.8256   29.7825   32.7740 H   0  0  0  0  0  0  0  0  0  0  0  0
   64.8161   28.3028   32.6237 H   0  0  0  0  0  0  0  0  0  0  0  0
   63.0671   26.9367   33.6220 H   0  0  0  0  0  0  0  0  0  0  0  0
   61.8263   28.7456   31.7498 H   0  0  0  0  0  0  0  0  0  0  0  0
   61.5072   29.5573   33.9824 H   0  0  0  0  0  0  0  0  0  0  0  0
   60.1981   27.7022   33.6746 H   0  0  0  0  0  0  0  0  0  0  0  0
   61.8157   29.1372   36.4393 H   0  0  0  0  0  0  0  0  0  0  0  0
   62.2293   26.8846   36.2758 H   0  0  0  0  0  0  0  0  0  0  0  0
   63.3290   30.6530   35.0864 H   0  0  0  0  0  0  0  0  0  0  0  0
   64.9975   28.2040   34.9746 H   0  0  0  0  0  0  0  0  0  0  0  0
   65.3192   30.5911   36.6175 H   0  0  0  0  0  0  0  0  0  0  0  0
   64.7271   29.0477   37.3005 H   0  0  0  0  0  0  0  0  0  0  0  0
   64.1500   30.8620   38.5600 H   0  0  0  0  0  0  0  0  0  0  0  0
   65.4759   29.7076   34.4472 H   0  0  0  0  0  0  0  0  0  0  0  0
  1  2  1  0  0  0  0
  1  9  1  0  0  0  0
  1 12  1  0  0  0  0
  1 13  1  0  0  0  0
  2  3  1  0  0  0  0
  2  4  1  0  0  0  0
  2 14  1  1  0  0  0
  3 15  1  0  0  0  0
  4  5  1  0  0  0  0
  4  6  1  0  0  0  0
  4 16  1  6  0  0  0
  5 17  1  0  0  0  0
  6  7  1  0  0  0  0
  6  8  1  0  0  0  0
  6 18  1  1  0  0  0
  7 19  1  0  0  0  0
  8  9  1  0  0  0  0
  8 10  1  0  0  0  0
  8 20  1  6  0  0  0
  9 21  1  0  0  0  0
  9 25  1  0  0  0  0
 10 11  1  0  0  0  0
 10 22  1  0  0  0  0
 10 23  1  0  0  0  0
 11 24  1  0  0  0  0
M  CHG  1   9   1
M  END
$$$$
