DGJ
 OpenBabel04111922083D

 25 25  0  0  1  0  0  0  0  0999 V2000
   76.8532   88.5755   18.1676 C   0  0  0  0  0  0  0  0  0  0  0  0
   76.3410   89.1281   19.5101 C   0  0  2  0  0  0  0  0  0  0  0  0
   75.3903   90.1747   19.2602 O   0  0  0  0  0  0  0  0  0  0  0  0
   77.4864   89.6117   20.4372 C   0  0  1  0  0  0  0  0  0  0  0  0
   77.0702   89.5127   21.7986 O   0  0  0  0  0  0  0  0  0  0  0  0
   78.7355   88.7519   20.2487 C   0  0  1  0  0  0  0  0  0  0  0  0
   78.3992   87.3875   20.5099 O   0  0  0  0  0  0  0  0  0  0  0  0
   79.2853   88.9146   18.8235 C   0  0  2  0  0  0  0  0  0  0  0  0
   78.1714   89.2023   17.8212 N   0  3  0  0  0  0  0  0  0  0  0  0
   80.0605   87.6986   18.3066 C   0  0  0  0  0  0  0  0  0  0  0  0
   80.5790   88.0637   17.0240 O   0  0  0  0  0  0  0  0  0  0  0  0
   76.1737   88.8096   17.3416 H   0  0  0  0  0  0  0  0  0  0  0  0
   77.0170   87.4949   18.2034 H   0  0  0  0  0  0  0  0  0  0  0  0
   75.7613   88.3421   20.0089 H   0  0  0  0  0  0  0  0  0  0  0  0
   75.8349   90.9998   18.9664 H   0  0  0  0  0  0  0  0  0  0  0  0
   77.7072   90.6702   20.2428 H   0  0  0  0  0  0  0  0  0  0  0  0
   77.7140   89.9645   22.3751 H   0  0  0  0  0  0  0  0  0  0  0  0
   79.5135   89.0313   20.9702 H   0  0  0  0  0  0  0  0  0  0  0  0
   78.0653   87.3468   21.4298 H   0  0  0  0  0  0  0  0  0  0  0  0
   79.9198   89.8029   18.7645 H   0  0  0  0  0  0  0  0  0  0  0  0
   78.4992   88.8271   16.9078 H   0  0  0  0  0  0  0  0  0  0  0  0
   79.4045   86.8248   18.1556 H   0  0  0  0  0  0  0  0  0  0  0  0
   80.8788   87.3970   18.9710 H   0  0  0  0  0  0  0  0  0  0  0  0
   81.4366   88.5098   17.1675 H   0  0  0  0  0  0  0  0  0  0  0  0
   78.0648   90.2096   17.6621 H   0  0  0  0  0  0  0  0  0  0  0  0
  1  2  1  0  0  0  0
  1  9  1  0  0  0  0
  1 12  1  0  0  0  0
  1 13  1  0  0  0  0
  2  3  1  0  0  0  0
  2  4  1  0  0  0  0
  2 14  1  1  0  0  0
  3 15  1  0  0  0  0
  4  5  1  0  0  0  0
  4  6  1  0  0  0  0
  4 16  1  6  0  0  0
  5 17  1  0  0  0  0
  6  7  1  0  0  0  0
  6  8  1  0  0  0  0
  6 18  1  1  0  0  0
  7 19  1  0  0  0  0
  8  9  1  0  0  0  0
  8 10  1  0  0  0  0
  8 20  1  6  0  0  0
  9 21  1  0  0  0  0
  9 25  1  0  0  0  0
 10 11  1  0  0  0  0
 10 22  1  0  0  0  0
 10 23  1  0  0  0  0
 11 24  1  0  0  0  0
M  CHG  1   9   1
M  END
$$$$
