E1F
 OpenBabel04111919513D

 31 32  0  0  0  0  0  0  0  0999 V2000
   -5.2535    0.9763   18.0710 O   0  0  0  0  0  0  0  0  0  0  0  0
   -1.1582    8.3433   14.9769 C   0  0  0  0  0  0  0  0  0  0  0  0
   -4.1822    4.0304   14.0039 C   0  0  0  0  0  0  0  0  0  0  0  0
   -5.5941    3.3824   15.8356 C   0  0  0  0  0  0  0  0  0  0  0  0
   -6.6584    3.8716   17.0996 Cl  0  0  0  0  0  0  0  0  0  0  0  0
   -5.1006    4.3756   15.0006 C   0  0  0  0  0  0  0  0  0  0  0  0
   -3.7916    2.7006   13.7905 C   0  0  0  0  0  0  0  0  0  0  0  0
   -4.3167    1.6797   14.6295 C   0  0  0  0  0  0  0  0  0  0  0  0
   -5.1858    2.0379   15.6617 C   0  0  0  0  0  0  0  0  0  0  0  0
   -5.8189    0.7679   16.7678 S   0  0  0  0  0  0  0  0  0  0  0  0
   -5.0752   -0.6632   16.1472 N   0  0  0  0  0  0  0  0  0  0  0  0
   -7.2490    0.7318   16.5523 O   0  0  0  0  0  0  0  0  0  0  0  0
   -3.6068    5.0953   13.1950 C   0  0  0  0  0  0  0  0  0  0  0  0
   -4.3702    6.0848   12.9311 O   0  0  0  0  0  0  0  0  0  0  0  0
   -2.1838    5.0071   12.7796 C   0  0  0  0  0  0  0  0  0  0  0  0
   -1.8324    6.3294   11.6078 S   0  0  0  0  0  0  0  0  0  0  0  0
   -1.5197    7.6299   12.8064 C   0  0  0  0  0  0  0  0  0  0  0  0
   -1.3031    8.8512   12.2840 N   0  0  0  0  0  0  0  0  0  0  0  0
   -1.0353    9.8306   13.1679 C   0  0  0  0  0  0  0  0  0  0  0  0
   -0.9425    9.6216   14.5267 C   0  0  0  0  0  0  0  0  0  0  0  0
   -1.4515    7.3322   14.1392 N   0  0  0  0  0  0  0  0  0  0  0  0
   -1.0850    8.1221   16.0535 H   0  0  0  0  0  0  0  0  0  0  0  0
   -5.3990    5.4320   15.1209 H   0  0  0  0  0  0  0  0  0  0  0  0
   -3.1093    2.4305   12.9856 H   0  0  0  0  0  0  0  0  0  0  0  0
   -4.0068    0.6442   14.4545 H   0  0  0  0  0  0  0  0  0  0  0  0
   -5.2390   -1.0198   15.2046 H   0  0  0  0  0  0  0  0  0  0  0  0
   -4.3924   -1.1670   16.7327 H   0  0  0  0  0  0  0  0  0  0  0  0
   -1.9912    4.0335   12.3224 H   0  0  0  0  0  0  0  0  0  0  0  0
   -1.5468    5.0963   13.6644 H   0  0  0  0  0  0  0  0  0  0  0  0
   -0.8879   10.8304   12.7559 H   0  0  0  0  0  0  0  0  0  0  0  0
   -0.7119   10.4250   15.2078 H   0  0  0  0  0  0  0  0  0  0  0  0
  1 10  2  0  0  0  0
  2 20  2  0  0  0  0
  2 21  1  0  0  0  0
  2 22  1  0  0  0  0
  3  6  2  0  0  0  0
  3  7  1  0  0  0  0
  3 13  1  0  0  0  0
  4  5  1  0  0  0  0
  4  6  1  0  0  0  0
  4  9  2  0  0  0  0
  6 23  1  0  0  0  0
  7  8  2  0  0  0  0
  7 24  1  0  0  0  0
  8  9  1  0  0  0  0
  8 25  1  0  0  0  0
  9 10  1  0  0  0  0
 10 11  1  0  0  0  0
 10 12  2  0  0  0  0
 11 26  1  0  0  0  0
 11 27  1  0  0  0  0
 13 14  2  0  0  0  0
 13 15  1  0  0  0  0
 15 16  1  0  0  0  0
 15 28  1  0  0  0  0
 15 29  1  0  0  0  0
 16 17  1  0  0  0  0
 17 18  1  0  0  0  0
 17 21  2  0  0  0  0
 18 19  2  0  0  0  0
 19 20  1  0  0  0  0
 19 30  1  0  0  0  0
 20 31  1  0  0  0  0
M  END
$$$$
