E1F
 OpenBabel04111919533D

 31 32  0  0  0  0  0  0  0  0999 V2000
   22.9340    2.6171    8.6434 O   0  0  0  0  0  0  0  0  0  0  0  0
   28.3572   12.2474    9.7648 C   0  0  0  0  0  0  0  0  0  0  0  0
   26.6195    5.9034   10.4508 C   0  0  0  0  0  0  0  0  0  0  0  0
   25.7869    4.0963    9.0445 C   0  0  0  0  0  0  0  0  0  0  0  0
   25.9788    3.2324    7.5589 Cl  0  0  0  0  0  0  0  0  0  0  0  0
   26.6669    5.1467    9.2721 C   0  0  0  0  0  0  0  0  0  0  0  0
   25.6398    5.5942   11.4069 C   0  0  0  0  0  0  0  0  0  0  0  0
   24.7672    4.5352   11.1892 C   0  0  0  0  0  0  0  0  0  0  0  0
   24.8301    3.7802   10.0088 C   0  0  0  0  0  0  0  0  0  0  0  0
   23.7854    2.3786    9.7809 S   0  0  0  0  0  0  0  0  0  0  0  0
   22.7774    2.4768   11.1192 N   0  0  0  0  0  0  0  0  0  0  0  0
   24.5892    1.1899    9.9516 O   0  0  0  0  0  0  0  0  0  0  0  0
   27.6133    6.9853   10.7142 C   0  0  0  0  0  0  0  0  0  0  0  0
   27.5685    7.5629   11.7979 O   0  0  0  0  0  0  0  0  0  0  0  0
   28.6567    7.2592    9.6312 C   0  0  0  0  0  0  0  0  0  0  0  0
   29.7732    8.6177   10.0362 S   0  0  0  0  0  0  0  0  0  0  0  0
   28.6794    9.9872    9.7595 C   0  0  0  0  0  0  0  0  0  0  0  0
   27.4696    9.7503    9.2159 N   0  0  0  0  0  0  0  0  0  0  0  0
   26.7023   10.8254    8.9693 C   0  0  0  0  0  0  0  0  0  0  0  0
   27.1006   12.1134    9.2248 C   0  0  0  0  0  0  0  0  0  0  0  0
   29.1654   11.2083   10.0358 N   0  0  0  0  0  0  0  0  0  0  0  0
   28.7660   13.2249   10.0028 H   0  0  0  0  0  0  0  0  0  0  0  0
   27.4196    5.3529    8.5074 H   0  0  0  0  0  0  0  0  0  0  0  0
   25.5713    6.1692   12.3340 H   0  0  0  0  0  0  0  0  0  0  0  0
   24.0391    4.2969   11.9745 H   0  0  0  0  0  0  0  0  0  0  0  0
   23.1055    1.9743   11.9408 H   0  0  0  0  0  0  0  0  0  0  0  0
   21.7909    2.4154   10.8764 H   0  0  0  0  0  0  0  0  0  0  0  0
   28.1596    7.4606    8.6731 H   0  0  0  0  0  0  0  0  0  0  0  0
   29.2692    6.3603    9.5046 H   0  0  0  0  0  0  0  0  0  0  0  0
   25.7270   10.6096    8.5445 H   0  0  0  0  0  0  0  0  0  0  0  0
   26.4683   12.9651    9.0175 H   0  0  0  0  0  0  0  0  0  0  0  0
  1 10  2  0  0  0  0
  2 20  2  0  0  0  0
  2 21  1  0  0  0  0
  2 22  1  0  0  0  0
  3  6  2  0  0  0  0
  3  7  1  0  0  0  0
  3 13  1  0  0  0  0
  4  5  1  0  0  0  0
  4  6  1  0  0  0  0
  4  9  2  0  0  0  0
  6 23  1  0  0  0  0
  7  8  2  0  0  0  0
  7 24  1  0  0  0  0
  8  9  1  0  0  0  0
  8 25  1  0  0  0  0
  9 10  1  0  0  0  0
 10 11  1  0  0  0  0
 10 12  2  0  0  0  0
 11 26  1  0  0  0  0
 11 27  1  0  0  0  0
 13 14  2  0  0  0  0
 13 15  1  0  0  0  0
 15 16  1  0  0  0  0
 15 28  1  0  0  0  0
 15 29  1  0  0  0  0
 16 17  1  0  0  0  0
 17 18  1  0  0  0  0
 17 21  2  0  0  0  0
 18 19  2  0  0  0  0
 19 20  1  0  0  0  0
 19 30  1  0  0  0  0
 20 31  1  0  0  0  0
M  END
$$$$
