E37
 OpenBabel04111918433D

 48 50  0  0  1  0  0  0  0  0999 V2000
  -10.8977  -29.4188    1.7735 O   0  0  0  0  0  0  0  0  0  0  0  0
  -10.1567  -28.5902    2.3340 C   0  0  0  0  0  0  0  0  0  0  0  0
   -9.3932  -29.0183    3.3839 N   0  0  0  0  0  0  0  0  0  0  0  0
  -10.1504  -27.0999    1.9972 C   0  0  2  0  0  0  0  0  0  0  0  0
  -10.2497  -26.8574    0.4869 C   0  0  0  0  0  0  0  0  0  0  0  0
  -10.3594  -25.3623    0.1982 C   0  0  0  0  0  0  0  0  0  0  0  0
   -8.9889  -24.6731    0.1431 C   0  0  0  0  0  0  0  0  0  0  0  0
   -9.0247  -23.4319    0.3373 O   0  0  0  0  0  0  0  0  0  0  0  0
   -7.9932  -25.4314   -0.0355 O   0  0  0  0  0  0  0  0  0  0  0  0
   -8.9612  -26.4738    2.5595 N   0  0  0  0  0  0  0  0  0  0  0  0
   -9.0759  -25.6468    3.6593 C   0  0  0  0  0  0  0  0  0  0  0  0
  -10.1230  -25.5238    4.2894 O   0  0  0  0  0  0  0  0  0  0  0  0
   -7.8698  -24.9622    4.1610 C   0  0  0  0  0  0  0  0  0  0  0  0
   -6.5879  -25.3786    3.8075 C   0  0  0  0  0  0  0  0  0  0  0  0
   -5.4908  -24.7797    4.4110 C   0  0  0  0  0  0  0  0  0  0  0  0
   -5.6391  -23.7718    5.3784 C   0  0  0  0  0  0  0  0  0  0  0  0
   -6.9347  -23.3667    5.7172 C   0  0  0  0  0  0  0  0  0  0  0  0
   -8.0402  -23.9597    5.1170 C   0  0  0  0  0  0  0  0  0  0  0  0
   -4.4652  -23.2156    6.0587 C   0  0  0  0  0  0  0  0  0  0  0  0
   -3.1414  -23.5533    5.8805 C   0  0  0  0  0  0  0  0  0  0  0  0
   -2.2444  -22.8831    6.7703 C   0  0  0  0  0  0  0  0  0  0  0  0
   -2.9412  -22.0292    7.5971 C   0  0  0  0  0  0  0  0  0  0  0  0
   -4.6091  -22.0295    7.2899 S   0  0  0  0  0  0  0  0  0  0  0  0
   -0.8036  -23.0807    6.8671 C   0  0  0  0  0  0  0  0  0  0  0  0
    0.0473  -22.2384    7.5895 C   0  0  0  0  0  0  0  0  0  0  0  0
    1.4200  -22.5006    7.6331 C   0  0  0  0  0  0  0  0  0  0  0  0
    1.9460  -23.6045    6.9528 C   0  0  0  0  0  0  0  0  0  0  0  0
    1.1036  -24.4491    6.2431 C   0  0  0  0  0  0  0  0  0  0  0  0
   -0.2596  -24.1881    6.2073 C   0  0  0  0  0  0  0  0  0  0  0  0
   -8.8234  -28.3584    3.8970 H   0  0  0  0  0  0  0  0  0  0  0  0
   -9.4342  -29.9843    3.6434 H   0  0  0  0  0  0  0  0  0  0  0  0
  -11.0434  -26.6616    2.4609 H   0  0  0  0  0  0  0  0  0  0  0  0
  -11.1292  -27.3692    0.0808 H   0  0  0  0  0  0  0  0  0  0  0  0
   -9.3816  -27.3094   -0.0099 H   0  0  0  0  0  0  0  0  0  0  0  0
  -10.9673  -24.8747    0.9735 H   0  0  0  0  0  0  0  0  0  0  0  0
  -10.8616  -25.2013   -0.7619 H   0  0  0  0  0  0  0  0  0  0  0  0
   -8.1446  -26.4337    1.9404 H   0  0  0  0  0  0  0  0  0  0  0  0
   -6.4275  -26.1789    3.0956 H   0  0  0  0  0  0  0  0  0  0  0  0
   -4.5058  -25.1414    4.1169 H   0  0  0  0  0  0  0  0  0  0  0  0
   -7.1094  -22.5994    6.4675 H   0  0  0  0  0  0  0  0  0  0  0  0
   -9.0365  -23.6444    5.4269 H   0  0  0  0  0  0  0  0  0  0  0  0
   -2.8467  -24.2979    5.1433 H   0  0  0  0  0  0  0  0  0  0  0  0
   -2.5697  -21.4001    8.3895 H   0  0  0  0  0  0  0  0  0  0  0  0
   -0.3352  -21.3705    8.1192 H   0  0  0  0  0  0  0  0  0  0  0  0
    2.0822  -21.8457    8.1933 H   0  0  0  0  0  0  0  0  0  0  0  0
    3.0108  -23.8145    6.9862 H   0  0  0  0  0  0  0  0  0  0  0  0
    1.4805  -25.3255    5.7194 H   0  0  0  0  0  0  0  0  0  0  0  0
   -0.8962  -24.8764    5.6689 H   0  0  0  0  0  0  0  0  0  0  0  0
  1  2  2  0  0  0  0
  2  3  1  0  0  0  0
  2  4  1  0  0  0  0
  3 30  1  0  0  0  0
  3 31  1  0  0  0  0
  4  5  1  0  0  0  0
  4 10  1  0  0  0  0
  4 32  1  1  0  0  0
  5  6  1  0  0  0  0
  5 33  1  0  0  0  0
  5 34  1  0  0  0  0
  6  7  1  0  0  0  0
  6 35  1  0  0  0  0
  6 36  1  0  0  0  0
  7  8  2  0  0  0  0
  7  9  1  0  0  0  0
 10 11  1  0  0  0  0
 10 37  1  0  0  0  0
 11 12  2  0  0  0  0
 11 13  1  0  0  0  0
 13 14  2  0  0  0  0
 13 18  1  0  0  0  0
 14 15  1  0  0  0  0
 14 38  1  0  0  0  0
 15 16  2  0  0  0  0
 15 39  1  0  0  0  0
 16 17  1  0  0  0  0
 16 19  1  0  0  0  0
 17 18  2  0  0  0  0
 17 40  1  0  0  0  0
 18 41  1  0  0  0  0
 19 20  2  0  0  0  0
 19 23  1  0  0  0  0
 20 21  1  0  0  0  0
 20 42  1  0  0  0  0
 21 22  2  0  0  0  0
 21 24  1  0  0  0  0
 22 23  1  0  0  0  0
 22 43  1  0  0  0  0
 24 25  2  0  0  0  0
 24 29  1  0  0  0  0
 25 26  1  0  0  0  0
 25 44  1  0  0  0  0
 26 27  2  0  0  0  0
 26 45  1  0  0  0  0
 27 28  1  0  0  0  0
 27 46  1  0  0  0  0
 28 29  2  0  0  0  0
 28 47  1  0  0  0  0
 29 48  1  0  0  0  0
M  END
$$$$
