EAT
 OpenBabel04111919363D

 33 35  0  0  1  0  0  0  0  0999 V2000
  -14.4216   11.7914   30.6503 O   0  0  0  0  0  0  0  0  0  0  0  0
  -15.1848   10.9778   31.5277 C   0  0  2  0  0  0  0  0  0  0  0  0
  -15.1971    9.4991   31.1375 C   0  0  2  0  0  0  0  0  0  0  0  0
  -15.6242    9.3191   29.7844 O   0  0  0  0  0  0  0  0  0  0  0  0
  -16.2662    8.9648   32.0810 C   0  0  2  0  0  0  0  0  0  0  0  0
  -16.6702    7.5383   31.7704 C   0  0  0  0  0  0  0  0  0  0  0  0
  -17.3647    9.9862   31.9028 N   0  3  0  0  0  0  0  0  0  0  0  0
  -16.6919   11.3133   31.4460 C   0  0  1  0  0  0  0  0  0  0  0  0
  -17.0825   12.4302   32.3321 C   0  0  0  0  0  0  0  0  0  0  0  0
  -17.6972   13.6056   31.9483 N   0  3  0  0  0  0  0  0  0  0  0  0
  -17.9429   14.3256   33.1154 C   0  0  0  0  0  0  0  0  0  0  0  0
  -18.5563   15.5544   33.3506 C   0  0  0  0  0  0  0  0  0  0  0  0
  -18.6351   15.9941   34.6975 C   0  0  0  0  0  0  0  0  0  0  0  0
  -18.1347   15.2343   35.7234 C   0  0  0  0  0  0  0  0  0  0  0  0
  -17.5229   14.0096   35.4517 C   0  0  0  0  0  0  0  0  0  0  0  0
  -17.4294   13.5551   34.1340 C   0  0  0  0  0  0  0  0  0  0  0  0
  -16.8965   12.3950   33.6426 N   0  0  0  0  0  0  0  0  0  0  0  0
  -13.4818   11.5251   30.6757 H   0  0  0  0  0  0  0  0  0  0  0  0
  -14.8082   11.0799   32.5514 H   0  0  0  0  0  0  0  0  0  0  0  0
  -14.2492    8.9879   31.2884 H   0  0  0  0  0  0  0  0  0  0  0  0
  -14.9691    9.7601   29.2076 H   0  0  0  0  0  0  0  0  0  0  0  0
  -15.9487    9.0194   33.1268 H   0  0  0  0  0  0  0  0  0  0  0  0
  -17.4276    7.1690   32.4690 H   0  0  0  0  0  0  0  0  0  0  0  0
  -15.7792    6.8997   31.8742 H   0  0  0  0  0  0  0  0  0  0  0  0
  -17.0427    7.4320   30.7487 H   0  0  0  0  0  0  0  0  0  0  0  0
  -18.0408    9.6738   31.2018 H   0  0  0  0  0  0  0  0  0  0  0  0
  -16.9512   11.5062   30.4003 H   0  0  0  0  0  0  0  0  0  0  0  0
  -17.9483   13.9007   31.0330 H   0  0  0  0  0  0  0  0  0  0  0  0
  -18.9335   16.1332   32.5264 H   0  0  0  0  0  0  0  0  0  0  0  0
  -19.1015   16.9587   34.8802 H   0  0  0  0  0  0  0  0  0  0  0  0
  -18.2091   15.5775   36.7565 H   0  0  0  0  0  0  0  0  0  0  0  0
  -17.1199   13.3921   36.2372 H   0  0  0  0  0  0  0  0  0  0  0  0
  -17.8464   10.1513   32.8005 H   0  0  0  0  0  0  0  0  0  0  0  0
  1  2  1  0  0  0  0
  1 18  1  0  0  0  0
  2  3  1  0  0  0  0
  2  8  1  0  0  0  0
  2 19  1  1  0  0  0
  3  4  1  0  0  0  0
  3  5  1  0  0  0  0
  3 20  1  1  0  0  0
  4 21  1  0  0  0  0
  5  6  1  0  0  0  0
  5  7  1  0  0  0  0
  5 22  1  1  0  0  0
  6 23  1  0  0  0  0
  6 24  1  0  0  0  0
  6 25  1  0  0  0  0
  7  8  1  0  0  0  0
  7 26  1  0  0  0  0
  7 33  1  0  0  0  0
  8  9  1  0  0  0  0
  8 27  1  6  0  0  0
  9 10  2  0  0  0  0
  9 17  1  0  0  0  0
 10 11  1  0  0  0  0
 10 28  1  0  0  0  0
 11 12  2  0  0  0  0
 11 16  1  0  0  0  0
 12 13  1  0  0  0  0
 12 29  1  0  0  0  0
 13 14  2  0  0  0  0
 13 30  1  0  0  0  0
 14 15  1  0  0  0  0
 14 31  1  0  0  0  0
 15 16  2  0  0  0  0
 15 32  1  0  0  0  0
 16 17  1  0  0  0  0
M  CHG  2   7   1  10   1
M  END
$$$$
