ETS
 OpenBabel04111920183D

 36 37  0  0  1  0  0  0  0  0999 V2000
   15.2393    3.6247   15.7794 S   0  0  0  0  0  0  0  0  0  0  0  0
   16.2596    2.2566   15.9968 C   0  0  0  0  0  0  0  0  0  0  0  0
   17.4948    2.4388   15.4031 C   0  0  0  0  0  0  0  0  0  0  0  0
   17.5919    3.7288   14.8137 C   0  0  0  0  0  0  0  0  0  0  0  0
   18.8068    4.1764   14.1139 C   0  0  2  0  0  0  0  0  0  0  0  0
   18.8747    5.6909   13.9276 C   0  0  0  0  0  0  0  0  0  0  0  0
   17.6167    6.3410   13.3404 C   0  0  2  0  0  0  0  0  0  0  0  0
   16.1375    6.1344   14.3565 S   0  0  0  0  0  0  0  0  0  0  0  0
   16.4352    4.4700   14.9288 C   0  0  0  0  0  0  0  0  0  0  0  0
   15.6200    0.9173   16.9515 S   0  0  0  0  0  0  0  0  0  0  0  0
   16.2829    1.0684   18.2440 O   0  0  0  0  0  0  0  0  0  0  0  0
   14.1589    0.9515   16.7755 O   0  0  0  0  0  0  0  0  0  0  0  0
   16.1909   -0.4581   16.2542 N   0  0  0  0  0  0  0  0  0  0  0  0
   18.8494    3.3694   12.8561 N   0  3  0  0  0  0  0  0  0  0  0  0
   17.3629    5.7649   11.9742 C   0  0  0  0  0  0  0  0  0  0  0  0
   16.2643    6.9757   15.5066 O   0  0  0  0  0  0  0  0  0  0  0  0
   14.9782    6.0739   13.4835 O   0  0  0  0  0  0  0  0  0  0  0  0
   20.0762    3.4597   12.0661 C   0  0  0  0  0  0  0  0  0  0  0  0
   20.1218    2.3520   11.0484 C   0  0  0  0  0  0  0  0  0  0  0  0
   18.3358    1.7434   15.4027 H   0  0  0  0  0  0  0  0  0  0  0  0
   19.6836    3.8594   14.6888 H   0  0  0  0  0  0  0  0  0  0  0  0
   19.7282    5.9348   13.2794 H   0  0  0  0  0  0  0  0  0  0  0  0
   19.0779    6.1397   14.9074 H   0  0  0  0  0  0  0  0  0  0  0  0
   17.7884    7.4150   13.2504 H   0  0  0  0  0  0  0  0  0  0  0  0
   15.9654   -1.3489   16.6923 H   0  0  0  0  0  0  0  0  0  0  0  0
   16.8154   -0.4327   15.4472 H   0  0  0  0  0  0  0  0  0  0  0  0
   18.6310    2.4011   13.0862 H   0  0  0  0  0  0  0  0  0  0  0  0
   18.2643    5.8345   11.3547 H   0  0  0  0  0  0  0  0  0  0  0  0
   16.5161    6.2254   11.4868 H   0  0  0  0  0  0  0  0  0  0  0  0
   17.0156    4.7465   12.0734 H   0  0  0  0  0  0  0  0  0  0  0  0
   20.8985    3.3653   12.7755 H   0  0  0  0  0  0  0  0  0  0  0  0
   20.0703    4.4289   11.5616 H   0  0  0  0  0  0  0  0  0  0  0  0
   21.0621    2.4491   10.5042 H   0  0  0  0  0  0  0  0  0  0  0  0
   19.2939    2.4223   10.3337 H   0  0  0  0  0  0  0  0  0  0  0  0
   20.0944    1.3715   11.5321 H   0  0  0  0  0  0  0  0  0  0  0  0
   18.0939    3.5876   12.2203 H   0  0  0  0  0  0  0  0  0  0  0  0
  1  2  1  0  0  0  0
  1  9  1  0  0  0  0
  2  3  2  0  0  0  0
  2 10  1  0  0  0  0
  3  4  1  0  0  0  0
  3 20  1  0  0  0  0
  4  5  1  0  0  0  0
  4  9  2  0  0  0  0
  5  6  1  0  0  0  0
  5 14  1  0  0  0  0
  5 21  1  1  0  0  0
  6  7  1  0  0  0  0
  6 22  1  0  0  0  0
  6 23  1  0  0  0  0
  7  8  1  0  0  0  0
  7 15  1  0  0  0  0
  7 24  1  6  0  0  0
  8  9  1  0  0  0  0
  8 16  2  0  0  0  0
  8 17  2  0  0  0  0
 10 11  2  0  0  0  0
 10 12  2  0  0  0  0
 10 13  1  0  0  0  0
 13 25  1  0  0  0  0
 13 26  1  0  0  0  0
 14 18  1  0  0  0  0
 14 27  1  0  0  0  0
 14 36  1  0  0  0  0
 15 28  1  0  0  0  0
 15 29  1  0  0  0  0
 15 30  1  0  0  0  0
 18 19  1  0  0  0  0
 18 31  1  0  0  0  0
 18 32  1  0  0  0  0
 19 33  1  0  0  0  0
 19 34  1  0  0  0  0
 19 35  1  0  0  0  0
M  CHG  1  14   1
M  END
$$$$
