F4D
 OpenBabel04111919433D

 60 63  0  0  0  0  0  0  0  0999 V2000
   17.7584   63.8248   19.8315 O   0  0  0  0  0  0  0  0  0  0  0  0
   17.2737   64.5965   20.9511 S   0  0  0  0  0  0  0  0  0  0  0  0
   18.1521   65.3609   21.8095 O   0  0  0  0  0  0  0  0  0  0  0  0
   16.0181   65.7057   20.3593 C   0  0  0  0  0  0  0  0  0  0  0  0
   15.5901   66.6571   21.2821 C   0  0  0  0  0  0  0  0  0  0  0  0
   14.6545   67.6134   20.9267 C   0  0  0  0  0  0  0  0  0  0  0  0
   14.1624   67.6166   19.6322 C   0  0  0  0  0  0  0  0  0  0  0  0
   13.2892   68.5690   19.2813 F   0  0  0  0  0  0  0  0  0  0  0  0
   14.5643   66.6589   18.6956 C   0  0  0  0  0  0  0  0  0  0  0  0
   15.4987   65.6762   19.0538 C   0  0  0  0  0  0  0  0  0  0  0  0
   16.3233   63.5744   21.8760 N   0  0  0  0  0  0  0  0  0  0  0  0
   16.1904   63.7111   23.2837 C   0  0  0  0  0  0  0  0  0  0  0  0
   16.8953   62.8178   24.0811 C   0  0  0  0  0  0  0  0  0  0  0  0
   17.8966   62.1057   23.4216 O   0  0  0  0  0  0  0  0  0  0  0  0
   18.4700   61.0799   24.1044 C   0  0  0  0  0  0  0  0  0  0  0  0
   19.1796   61.3125   25.2731 C   0  0  0  0  0  0  0  0  0  0  0  0
   19.7418   60.2441   25.9610 C   0  0  0  0  0  0  0  0  0  0  0  0
   19.6434   58.9337   25.4654 C   0  0  0  0  0  0  0  0  0  0  0  0
   20.2694   57.8028   26.2052 C   0  0  0  0  0  0  0  0  0  0  0  0
   20.2047   56.5795   25.7228 N   0  0  0  0  0  0  0  0  0  0  0  0
   20.8712   58.0023   27.3479 N   0  0  0  0  0  0  0  0  0  0  0  0
   18.9487   58.7350   24.2546 C   0  0  0  0  0  0  0  0  0  0  0  0
   18.3718   59.8022   23.5712 C   0  0  0  0  0  0  0  0  0  0  0  0
   15.1269   64.4067   23.8513 C   0  0  0  0  0  0  0  0  0  0  0  0
   14.7840   64.1534   25.1755 C   0  0  0  0  0  0  0  0  0  0  0  0
   15.4948   63.1797   25.8654 C   0  0  0  0  0  0  0  0  0  0  0  0
   16.5484   62.5164   25.3528 N   0  0  0  0  0  0  0  0  0  0  0  0
   15.2943   62.9413   27.1948 O   0  0  0  0  0  0  0  0  0  0  0  0
   14.0920   62.4750   27.6520 C   0  0  0  0  0  0  0  0  0  0  0  0
   12.8972   62.3751   26.9389 C   0  0  0  0  0  0  0  0  0  0  0  0
   11.7487   61.9016   27.5682 C   0  0  0  0  0  0  0  0  0  0  0  0
   11.7850   61.5053   28.9114 C   0  0  0  0  0  0  0  0  0  0  0  0
   10.5830   60.9602   29.5489 C   0  0  0  0  0  0  0  0  0  0  0  0
   10.7119   59.9572   30.3846 N   0  0  0  0  0  0  0  0  0  0  0  0
    9.4067   61.4715   29.2565 N   0  0  0  0  0  0  0  0  0  0  0  0
   12.9920   61.6002   29.6191 C   0  0  0  0  0  0  0  0  0  0  0  0
   14.1337   62.0820   28.9907 C   0  0  0  0  0  0  0  0  0  0  0  0
   16.0101   66.6635   22.2839 H   0  0  0  0  0  0  0  0  0  0  0  0
   14.3455   68.3614   21.6472 H   0  0  0  0  0  0  0  0  0  0  0  0
   14.1570   66.7103   17.6885 H   0  0  0  0  0  0  0  0  0  0  0  0
   15.8150   64.9396   18.3164 H   0  0  0  0  0  0  0  0  0  0  0  0
   15.4616   63.2839   21.4249 H   0  0  0  0  0  0  0  0  0  0  0  0
   19.2595   62.3234   25.6678 H   0  0  0  0  0  0  0  0  0  0  0  0
   20.2432   60.4953   26.8897 H   0  0  0  0  0  0  0  0  0  0  0  0
   20.6552   55.7984   26.1848 H   0  0  0  0  0  0  0  0  0  0  0  0
   20.9446   58.9092   27.7820 H   0  0  0  0  0  0  0  0  0  0  0  0
   21.3211   57.2473   27.8506 H   0  0  0  0  0  0  0  0  0  0  0  0
   18.8273   57.7558   23.8021 H   0  0  0  0  0  0  0  0  0  0  0  0
   17.8409   59.6366   22.6354 H   0  0  0  0  0  0  0  0  0  0  0  0
   14.5085   65.0847   23.2739 H   0  0  0  0  0  0  0  0  0  0  0  0
   13.9493   64.6741   25.6357 H   0  0  0  0  0  0  0  0  0  0  0  0
   12.8141   62.6524   25.8934 H   0  0  0  0  0  0  0  0  0  0  0  0
   10.8344   61.8229   26.9817 H   0  0  0  0  0  0  0  0  0  0  0  0
    9.9247   59.5278   30.8456 H   0  0  0  0  0  0  0  0  0  0  0  0
    9.3296   62.2644   28.6284 H   0  0  0  0  0  0  0  0  0  0  0  0
    8.5455   61.1264   29.6601 H   0  0  0  0  0  0  0  0  0  0  0  0
   13.0657   61.3111   30.6653 H   0  0  0  0  0  0  0  0  0  0  0  0
   15.0714   62.1510   29.5415 H   0  0  0  0  0  0  0  0  0  0  0  0
   19.7801   56.3596   24.8225 H   0  0  0  0  0  0  0  0  0  0  0  0
   11.6313   59.5613   30.5759 H   0  0  0  0  0  0  0  0  0  0  0  0
  1  2  2  0  0  0  0
  2  3  2  0  0  0  0
  2  4  1  0  0  0  0
  2 11  1  0  0  0  0
  4  5  2  0  0  0  0
  4 10  1  0  0  0  0
  5  6  1  0  0  0  0
  5 38  1  0  0  0  0
  6  7  2  0  0  0  0
  6 39  1  0  0  0  0
  7  8  1  0  0  0  0
  7  9  1  0  0  0  0
  9 10  2  0  0  0  0
  9 40  1  0  0  0  0
 10 41  1  0  0  0  0
 11 12  1  0  0  0  0
 11 42  1  0  0  0  0
 12 13  2  0  0  0  0
 12 24  1  0  0  0  0
 13 14  1  0  0  0  0
 13 27  1  0  0  0  0
 14 15  1  0  0  0  0
 15 16  2  0  0  0  0
 15 23  1  0  0  0  0
 16 17  1  0  0  0  0
 16 43  1  0  0  0  0
 17 18  2  0  0  0  0
 17 44  1  0  0  0  0
 18 19  1  0  0  0  0
 18 22  1  0  0  0  0
 19 20  2  0  0  0  0
 19 21  1  0  0  0  0
 20 45  1  0  0  0  0
 20 59  1  0  0  0  0
 21 46  1  0  0  0  0
 21 47  1  0  0  0  0
 22 23  2  0  0  0  0
 22 48  1  0  0  0  0
 23 49  1  0  0  0  0
 24 25  2  0  0  0  0
 24 50  1  0  0  0  0
 25 26  1  0  0  0  0
 25 51  1  0  0  0  0
 26 27  2  0  0  0  0
 26 28  1  0  0  0  0
 28 29  1  0  0  0  0
 29 30  2  0  0  0  0
 29 37  1  0  0  0  0
 30 31  1  0  0  0  0
 30 52  1  0  0  0  0
 31 32  2  0  0  0  0
 31 53  1  0  0  0  0
 32 33  1  0  0  0  0
 32 36  1  0  0  0  0
 33 34  2  0  0  0  0
 33 35  1  0  0  0  0
 34 54  1  0  0  0  0
 34 60  1  0  0  0  0
 35 55  1  0  0  0  0
 35 56  1  0  0  0  0
 36 37  2  0  0  0  0
 36 57  1  0  0  0  0
 37 58  1  0  0  0  0
M  END
$$$$
