FA0
 OpenBabel04111920323D

 16 16  0  0  0  0  0  0  0  0999 V2000
  -17.8275  -36.8699   17.5276 O   0  0  0  0  0  0  0  0  0  0  0  0
  -18.5375  -35.8149   17.5809 C   0  0  0  0  0  0  0  0  0  0  0  0
  -19.5160  -35.6244   18.3734 O   0  0  0  0  0  0  0  0  0  0  0  0
  -18.2037  -34.6754   16.6250 C   0  0  0  0  0  0  0  0  0  0  0  0
  -18.7715  -33.4030   16.8297 C   0  0  0  0  0  0  0  0  0  0  0  0
  -18.4832  -32.3383   15.9653 C   0  0  0  0  0  0  0  0  0  0  0  0
  -17.6498  -32.5383   14.8878 C   0  0  0  0  0  0  0  0  0  0  0  0
  -17.3740  -31.5233   14.0559 F   0  0  0  0  0  0  0  0  0  0  0  0
  -17.0845  -33.7812   14.6556 C   0  0  0  0  0  0  0  0  0  0  0  0
  -17.3410  -34.8490   15.5270 C   0  0  0  0  0  0  0  0  0  0  0  0
  -16.8224  -36.0941   15.1900 N   0  0  0  0  0  0  0  0  0  0  0  0
  -19.4470  -33.2492   17.6812 H   0  0  0  0  0  0  0  0  0  0  0  0
  -18.9373  -31.3620   16.1410 H   0  0  0  0  0  0  0  0  0  0  0  0
  -16.4384  -33.9206   13.7964 H   0  0  0  0  0  0  0  0  0  0  0  0
  -16.9515  -36.8159   15.9199 H   0  0  0  0  0  0  0  0  0  0  0  0
  -16.1336  -36.2055   14.4672 H   0  0  0  0  0  0  0  0  0  0  0  0
  1  2  2  0  0  0  0
  2  3  1  0  0  0  0
  2  4  1  0  0  0  0
  4  5  2  0  0  0  0
  4 10  1  0  0  0  0
  5  6  1  0  0  0  0
  5 12  1  0  0  0  0
  6  7  2  0  0  0  0
  6 13  1  0  0  0  0
  7  8  1  0  0  0  0
  7  9  1  0  0  0  0
  9 10  2  0  0  0  0
  9 14  1  0  0  0  0
 10 11  1  0  0  0  0
 11 15  1  0  0  0  0
 11 16  1  0  0  0  0
M  END
$$$$
