FGH
 OpenBabel04111920433D

 68 72  0  0  1  0  0  0  0  0999 V2000
    8.8597  -12.0686  -23.9772 O   0  0  0  0  0  0  0  0  0  0  0  0
    7.6994  -12.4701  -24.1422 C   0  0  0  0  0  0  0  0  0  0  0  0
    7.4362  -13.9091  -24.5414 C   0  0  0  0  0  0  0  0  0  0  0  0
    6.1835  -14.1022  -25.4102 C   0  0  0  0  0  0  0  0  0  0  0  0
    5.8925  -15.6071  -25.5390 C   0  0  0  0  0  0  0  0  0  0  0  0
    6.4236  -13.5485  -26.8172 C   0  0  0  0  0  0  0  0  0  0  0  0
    4.9689  -13.4069  -24.7521 C   0  0  0  0  0  0  0  0  0  0  0  0
    5.2833  -12.0326  -24.2291 C   0  0  1  0  0  0  0  0  0  0  0  0
    6.5602  -11.5813  -23.9419 C   0  0  2  0  0  0  0  0  0  0  0  0
    6.4428  -10.2257  -23.5349 C   0  0  1  0  0  0  0  0  0  0  0  0
    7.4832   -9.2347  -23.1219 C   0  0  0  0  0  0  0  0  0  0  0  0
    6.9341   -7.8013  -23.0645 C   0  0  0  0  0  0  0  0  0  0  0  0
    5.5538   -7.7167  -22.4599 N   0  3  1  0  0  0  0  0  0  0  0  0
    5.0975   -6.2912  -22.3669 C   0  0  0  0  0  0  0  0  0  0  0  0
    4.5521   -8.5538  -23.2371 C   0  0  0  0  0  0  0  0  0  0  0  0
    5.0973   -9.8914  -23.5868 C   0  0  1  0  0  0  0  0  0  0  0  0
    4.3789  -10.9980  -24.0331 N   0  3  1  0  0  0  0  0  0  0  0  0
    3.0014  -11.0352  -24.3504 C   0  0  1  0  0  0  0  0  0  0  0  0
    2.5088  -10.0945  -25.2561 C   0  0  0  0  0  0  0  0  0  0  0  0
    2.1524  -11.9923  -23.8049 C   0  0  0  0  0  0  0  0  0  0  0  0
    0.7972  -12.0171  -24.1633 C   0  0  2  0  0  0  0  0  0  0  0  0
   -0.1106  -13.0582  -23.5408 C   0  0  0  0  0  0  0  0  0  0  0  0
   -1.5355  -12.5435  -23.4480 C   0  0  0  0  0  0  0  0  0  0  0  0
   -1.9428  -11.9694  -24.7106 N   0  0  0  0  0  0  0  0  0  0  0  0
   -1.1178  -11.2653  -25.5705 C   0  0  0  0  0  0  0  0  0  0  0  0
   -1.5141  -10.8690  -26.6409 O   0  0  0  0  0  0  0  0  0  0  0  0
    0.3035  -11.0896  -25.1153 C   0  0  2  0  0  0  0  0  0  0  0  0
    1.1563  -10.0811  -25.6281 C   0  0  1  0  0  0  0  0  0  0  0  0
    0.7628   -8.9259  -26.5262 C   0  0  0  0  0  0  0  0  0  0  0  0
    0.1103   -7.7019  -25.8592 C   0  0  0  0  0  0  0  0  0  0  0  0
   -0.1694   -6.6327  -26.9175 C   0  0  0  0  0  0  0  0  0  0  0  0
    0.9164   -7.0644  -24.7296 C   0  0  0  0  0  0  0  0  0  0  0  0
    7.3271  -14.5076  -23.6253 H   0  0  0  0  0  0  0  0  0  0  0  0
    8.3124  -14.2714  -25.0945 H   0  0  0  0  0  0  0  0  0  0  0  0
    5.0050  -15.7741  -26.1615 H   0  0  0  0  0  0  0  0  0  0  0  0
    5.7079  -16.0444  -24.5499 H   0  0  0  0  0  0  0  0  0  0  0  0
    6.7417  -16.1324  -25.9950 H   0  0  0  0  0  0  0  0  0  0  0  0
    6.6389  -12.4789  -26.7690 H   0  0  0  0  0  0  0  0  0  0  0  0
    5.5348  -13.6977  -27.4421 H   0  0  0  0  0  0  0  0  0  0  0  0
    7.2705  -14.0548  -27.2961 H   0  0  0  0  0  0  0  0  0  0  0  0
    4.6449  -14.0279  -23.9102 H   0  0  0  0  0  0  0  0  0  0  0  0
    4.1707  -13.3491  -25.4953 H   0  0  0  0  0  0  0  0  0  0  0  0
    8.3006   -9.2379  -23.8455 H   0  0  0  0  0  0  0  0  0  0  0  0
    7.8817   -9.5020  -22.1381 H   0  0  0  0  0  0  0  0  0  0  0  0
    6.8465   -7.3898  -24.0737 H   0  0  0  0  0  0  0  0  0  0  0  0
    7.5813   -7.1684  -22.4482 H   0  0  0  0  0  0  0  0  0  0  0  0
    4.1024   -6.2833  -21.9203 H   0  0  0  0  0  0  0  0  0  0  0  0
    5.0730   -5.8745  -23.3760 H   0  0  0  0  0  0  0  0  0  0  0  0
    5.8047   -5.7442  -21.7404 H   0  0  0  0  0  0  0  0  0  0  0  0
    4.3404   -7.9766  -24.1399 H   0  0  0  0  0  0  0  0  0  0  0  0
    3.6759   -8.6226  -22.5892 H   0  0  0  0  0  0  0  0  0  0  0  0
    3.1801   -9.3660  -25.7108 H   0  0  0  0  0  0  0  0  0  0  0  0
    2.5239  -12.6982  -23.0670 H   0  0  0  0  0  0  0  0  0  0  0  0
    0.2408  -13.3014  -22.5302 H   0  0  0  0  0  0  0  0  0  0  0  0
   -0.0972  -13.9714  -24.1492 H   0  0  0  0  0  0  0  0  0  0  0  0
   -1.6142  -11.7790  -22.6661 H   0  0  0  0  0  0  0  0  0  0  0  0
   -2.2175  -13.3660  -23.2027 H   0  0  0  0  0  0  0  0  0  0  0  0
   -2.9033  -12.0676  -25.0308 H   0  0  0  0  0  0  0  0  0  0  0  0
    0.0847   -9.2970  -27.2979 H   0  0  0  0  0  0  0  0  0  0  0  0
    1.6731   -8.5802  -27.0421 H   0  0  0  0  0  0  0  0  0  0  0  0
   -0.8469   -8.0211  -25.4413 H   0  0  0  0  0  0  0  0  0  0  0  0
   -0.6342   -5.7530  -26.4574 H   0  0  0  0  0  0  0  0  0  0  0  0
   -0.8504   -7.0277  -27.6791 H   0  0  0  0  0  0  0  0  0  0  0  0
    0.7602   -6.3172  -27.4093 H   0  0  0  0  0  0  0  0  0  0  0  0
    1.1320   -7.8004  -23.9518 H   0  0  0  0  0  0  0  0  0  0  0  0
    0.3410   -6.2466  -24.2718 H   0  0  0  0  0  0  0  0  0  0  0  0
    1.8617   -6.6491  -25.0994 H   0  0  0  0  0  0  0  0  0  0  0  0
    5.6072   -8.0979  -21.5105 H   0  0  0  0  0  0  0  0  0  0  0  0
  1  2  2  0  0  0  0
  2  3  1  0  0  0  0
  3  4  1  0  0  0  0
  3 33  1  0  0  0  0
  3 34  1  0  0  0  0
  4  5  1  0  0  0  0
  4  6  1  0  0  0  0
  4  7  1  0  0  0  0
  5 35  1  0  0  0  0
  5 36  1  0  0  0  0
  5 37  1  0  0  0  0
  6 38  1  0  0  0  0
  6 39  1  0  0  0  0
  6 40  1  0  0  0  0
  7 41  1  0  0  0  0
  7 42  1  0  0  0  0
  8  7  1  6  0  0  0
  8  9  1  0  0  0  0
  8 17  1  0  0  0  0
  9  2  1  6  0  0  0
  9 10  1  0  0  0  0
 10 11  1  6  0  0  0
 10 16  1  0  0  0  0
 11 12  1  0  0  0  0
 11 43  1  0  0  0  0
 11 44  1  0  0  0  0
 12 13  1  0  0  0  0
 12 45  1  0  0  0  0
 12 46  1  0  0  0  0
 13 14  1  0  0  0  0
 13 15  1  0  0  0  0
 13 68  1  1  0  0  0
 14 47  1  0  0  0  0
 14 48  1  0  0  0  0
 14 49  1  0  0  0  0
 15 50  1  0  0  0  0
 15 51  1  0  0  0  0
 16 15  1  6  0  0  0
 16 17  1  0  0  0  0
 17 18  1  6  0  0  0
 18 19  1  6  0  0  0
 18 20  1  0  0  0  0
 19 28  1  0  0  0  0
 19 52  1  0  0  0  0
 20 53  1  0  0  0  0
 21 20  1  6  0  0  0
 21 22  1  0  0  0  0
 21 27  1  0  0  0  0
 22 23  1  0  0  0  0
 22 54  1  0  0  0  0
 22 55  1  0  0  0  0
 23 24  1  0  0  0  0
 23 56  1  0  0  0  0
 23 57  1  0  0  0  0
 24 25  1  0  0  0  0
 24 58  1  0  0  0  0
 25 26  2  0  0  0  0
 27 25  1  6  0  0  0
 27 28  1  0  0  0  0
 28 29  1  1  0  0  0
 29 30  1  0  0  0  0
 29 59  1  0  0  0  0
 29 60  1  0  0  0  0
 30 31  1  0  0  0  0
 30 32  1  0  0  0  0
 30 61  1  0  0  0  0
 31 62  1  0  0  0  0
 31 63  1  0  0  0  0
 31 64  1  0  0  0  0
 32 65  1  0  0  0  0
 32 66  1  0  0  0  0
 32 67  1  0  0  0  0
M  CHG  2  13   1  17   1
M  END
$$$$
