FK5
 OpenBabel04111920383D

134137  0  0  1  0  0  0  0  0999 V2000
   19.6996   32.8124    8.8418 C   0  0  0  0  0  0  0  0  0  0  0  0
   18.2766   32.5757    9.2970 C   0  0  2  0  0  0  0  0  0  0  0  0
   17.3454   32.3900    8.0956 C   0  0  0  0  0  0  0  0  0  0  0  0
   16.9827   33.7322    7.4558 C   0  0  0  0  0  0  0  0  0  0  0  0
   16.3601   34.6642    8.4838 C   0  0  0  0  0  0  0  0  0  0  0  0
   17.2354   34.8053    9.7080 C   0  0  0  0  0  0  0  0  0  0  0  0
   17.5504   33.1185   11.5315 C   0  0  0  0  0  0  0  0  0  0  0  0
   16.9074   33.9863   12.5973 C   0  0  1  0  0  0  0  0  0  0  0  0
   17.7615   35.1134   13.2189 C   0  0  1  0  0  0  0  0  0  0  0  0
   19.0987   34.5101   13.6943 C   0  0  1  0  0  0  0  0  0  0  0  0
   19.9869   35.6044   14.2484 C   0  0  0  0  0  0  0  0  0  0  0  0
   20.1544   36.7062   13.2032 C   0  0  1  0  0  0  0  0  0  0  0  0
   18.7517   37.2621   12.9228 C   0  0  1  0  0  0  0  0  0  0  0  0
   18.6763   38.4900   12.0153 C   0  0  2  0  0  0  0  0  0  0  0  0
   19.4660   38.3743   10.7097 C   0  0  0  0  0  0  0  0  0  0  0  0
   19.2548   39.5799    9.7517 C   0  0  2  0  0  0  0  0  0  0  0  0
   20.2696   40.7169   10.0197 C   0  0  0  0  0  0  0  0  0  0  0  0
   21.6087   40.2288    9.4243 C   0  0  2  0  0  0  0  0  0  0  0  0
   22.6824   39.9036   10.4567 C   0  0  0  0  0  0  0  0  0  0  0  0
   24.0243   39.3582    9.9320 C   0  0  2  0  0  0  0  0  0  0  0  0
   24.0575   37.9000    9.4572 C   0  0  2  0  0  0  0  0  0  0  0  0
   23.5499   37.5249    8.0857 C   0  0  0  0  0  0  0  0  0  0  0  0
   23.2040   36.0513    7.9781 C   0  0  1  0  0  0  0  0  0  0  0  0
   21.8372   35.6873    8.6156 C   0  0  2  0  0  0  0  0  0  0  0  0
   21.5894   34.1720    8.6145 C   0  0  1  0  0  0  0  0  0  0  0  0
   22.6478   33.4308    9.4117 C   0  0  0  0  0  0  0  0  0  0  0  0
   23.4934   32.5712    8.8124 C   0  0  0  0  0  0  0  0  0  0  0  0
   24.6633   31.9266    9.5022 C   0  0  1  0  0  0  0  0  0  0  0  0
   24.5961   30.4197    9.3592 C   0  0  0  0  0  0  0  0  0  0  0  0
   25.8316   29.7764    9.9950 C   0  0  2  0  0  0  0  0  0  0  0  0
   27.0745   30.2871    9.2390 C   0  0  1  0  0  0  0  0  0  0  0  0
   27.2006   31.7917    9.4397 C   0  0  0  0  0  0  0  0  0  0  0  0
   25.9624   32.5320    8.9598 C   0  0  0  0  0  0  0  0  0  0  0  0
   18.9316   33.4227   14.7629 C   0  0  0  0  0  0  0  0  0  0  0  0
   17.8215   40.0720    9.7634 C   0  0  0  0  0  0  0  0  0  0  0  0
   21.9434   40.7927    8.0519 C   0  0  0  0  0  0  0  0  0  0  0  0
   25.0226   39.3534   11.1136 C   0  0  0  0  0  0  0  0  0  0  0  0
   25.4375   40.7351   11.5349 C   0  0  0  0  0  0  0  0  0  0  0  0
   26.8708   41.0507   11.1782 C   0  0  0  0  0  0  0  0  0  0  0  0
   20.6548   36.3837    7.9501 C   0  0  0  0  0  0  0  0  0  0  0  0
   22.6987   33.7659   10.8724 C   0  0  0  0  0  0  0  0  0  0  0  0
   22.3774   37.1647   13.7504 C   0  0  0  0  0  0  0  0  0  0  0  0
   18.0244   40.2724   13.4219 C   0  0  0  0  0  0  0  0  0  0  0  0
   25.4744   27.7583    8.7593 C   0  0  0  0  0  0  0  0  0  0  0  0
   17.6787   33.5225   10.2288 N   0  0  0  0  0  0  0  0  0  0  0  0
   20.2994   33.9169    9.2093 O   0  0  0  0  0  0  0  0  0  0  0  0
   20.2353   32.0082    8.0356 O   0  0  0  0  0  0  0  0  0  0  0  0
   17.9570   32.0003   11.8800 O   0  0  0  0  0  0  0  0  0  0  0  0
   15.5312   34.3181   12.4976 O   0  0  0  0  0  0  0  0  0  0  0  0
   17.9486   36.2179   12.3397 O   0  0  0  0  0  0  0  0  0  0  0  0
   17.0425   35.6022   14.3622 O   0  0  0  0  0  0  0  0  0  0  0  0
   21.0604   37.6916   13.6813 O   0  0  0  0  0  0  0  0  0  0  0  0
   19.0892   39.6697   12.7024 O   0  0  0  0  0  0  0  0  0  0  0  0
   23.7047   36.9579   10.4624 O   0  0  0  0  0  0  0  0  0  0  0  0
   23.2098   35.7221    6.5882 O   0  0  0  0  0  0  0  0  0  0  0  0
   25.7303   28.3487   10.0222 O   0  0  0  0  0  0  0  0  0  0  0  0
   28.2758   29.6745    9.6905 O   0  0  0  0  0  0  0  0  0  0  0  0
   18.3377   31.5872    9.7799 H   0  0  0  0  0  0  0  0  0  0  0  0
   16.4250   31.9092    8.4339 H   0  0  0  0  0  0  0  0  0  0  0  0
   17.7931   31.7414    7.3471 H   0  0  0  0  0  0  0  0  0  0  0  0
   16.2718   33.5690    6.6395 H   0  0  0  0  0  0  0  0  0  0  0  0
   17.8828   34.1849    7.0310 H   0  0  0  0  0  0  0  0  0  0  0  0
   15.3556   34.3071    8.7635 H   0  0  0  0  0  0  0  0  0  0  0  0
   16.2188   35.6613    8.0500 H   0  0  0  0  0  0  0  0  0  0  0  0
   16.6834   35.3676   10.4549 H   0  0  0  0  0  0  0  0  0  0  0  0
   18.1264   35.3861    9.4830 H   0  0  0  0  0  0  0  0  0  0  0  0
   16.8703   33.2666   13.4001 H   0  0  0  0  0  0  0  0  0  0  0  0
   19.6282   34.0756   12.8352 H   0  0  0  0  0  0  0  0  0  0  0  0
   20.9378   35.1551   14.5304 H   0  0  0  0  0  0  0  0  0  0  0  0
   19.5706   36.0318   15.1717 H   0  0  0  0  0  0  0  0  0  0  0  0
   20.5389   36.2728   12.2725 H   0  0  0  0  0  0  0  0  0  0  0  0
   18.2967   37.5664   13.8777 H   0  0  0  0  0  0  0  0  0  0  0  0
   17.6223   38.5767   11.7297 H   0  0  0  0  0  0  0  0  0  0  0  0
   19.1795   37.4587   10.1890 H   0  0  0  0  0  0  0  0  0  0  0  0
   20.5241   38.2532   10.9416 H   0  0  0  0  0  0  0  0  0  0  0  0
   19.4269   39.2231    8.7249 H   0  0  0  0  0  0  0  0  0  0  0  0
   20.3503   40.9249   11.0969 H   0  0  0  0  0  0  0  0  0  0  0  0
   19.9224   41.6588    9.5682 H   0  0  0  0  0  0  0  0  0  0  0  0
   21.3965   39.2083    9.1238 H   0  0  0  0  0  0  0  0  0  0  0  0
   22.2715   39.1030   11.0751 H   0  0  0  0  0  0  0  0  0  0  0  0
   22.8196   40.7444   11.1485 H   0  0  0  0  0  0  0  0  0  0  0  0
   24.3968   40.0021    9.1272 H   0  0  0  0  0  0  0  0  0  0  0  0
   25.1239   37.7193    9.3075 H   0  0  0  0  0  0  0  0  0  0  0  0
   24.3764   37.7467    7.3935 H   0  0  0  0  0  0  0  0  0  0  0  0
   22.7346   38.1248    7.6960 H   0  0  0  0  0  0  0  0  0  0  0  0
   24.0125   35.4766    8.4532 H   0  0  0  0  0  0  0  0  0  0  0  0
   21.8121   36.0243    9.6579 H   0  0  0  0  0  0  0  0  0  0  0  0
   21.5481   33.8487    7.5698 H   0  0  0  0  0  0  0  0  0  0  0  0
   23.3841   32.3536    7.7487 H   0  0  0  0  0  0  0  0  0  0  0  0
   24.6608   32.1098   10.5748 H   0  0  0  0  0  0  0  0  0  0  0  0
   24.5536   30.1761    8.2902 H   0  0  0  0  0  0  0  0  0  0  0  0
   23.6837   30.0134    9.8120 H   0  0  0  0  0  0  0  0  0  0  0  0
   25.9053   30.0822   11.0486 H   0  0  0  0  0  0  0  0  0  0  0  0
   26.9784   30.0714    8.1674 H   0  0  0  0  0  0  0  0  0  0  0  0
   28.0855   32.1644    8.9145 H   0  0  0  0  0  0  0  0  0  0  0  0
   27.3684   31.9988   10.5057 H   0  0  0  0  0  0  0  0  0  0  0  0
   26.0313   33.5813    9.2780 H   0  0  0  0  0  0  0  0  0  0  0  0
   25.9493   32.5304    7.8635 H   0  0  0  0  0  0  0  0  0  0  0  0
   18.3404   32.5762   14.4099 H   0  0  0  0  0  0  0  0  0  0  0  0
   18.4399   33.8206   15.6561 H   0  0  0  0  0  0  0  0  0  0  0  0
   19.8988   33.0032   15.0479 H   0  0  0  0  0  0  0  0  0  0  0  0
   17.1427   39.2356    9.5615 H   0  0  0  0  0  0  0  0  0  0  0  0
   17.6585   40.8529    9.0223 H   0  0  0  0  0  0  0  0  0  0  0  0
   17.5747   40.5029   10.7287 H   0  0  0  0  0  0  0  0  0  0  0  0
   21.0521   41.1836    7.5478 H   0  0  0  0  0  0  0  0  0  0  0  0
   22.2496   39.9535    7.4263 H   0  0  0  0  0  0  0  0  0  0  0  0
   22.7535   41.5209    8.0194 H   0  0  0  0  0  0  0  0  0  0  0  0
   25.8942   38.7286   10.8764 H   0  0  0  0  0  0  0  0  0  0  0  0
   24.5389   38.8874   11.9820 H   0  0  0  0  0  0  0  0  0  0  0  0
   25.3153   40.7987   12.6185 H   0  0  0  0  0  0  0  0  0  0  0  0
   24.8000   41.4836   11.0659 H   0  0  0  0  0  0  0  0  0  0  0  0
   27.0790   42.0659   11.5231 H   0  0  0  0  0  0  0  0  0  0  0  0
   27.0283   41.0063   10.0973 H   0  0  0  0  0  0  0  0  0  0  0  0
   27.5654   40.3631   11.6683 H   0  0  0  0  0  0  0  0  0  0  0  0
   20.7693   37.4615    7.9585 H   0  0  0  0  0  0  0  0  0  0  0  0
   19.7439   36.1709    8.5019 H   0  0  0  0  0  0  0  0  0  0  0  0
   20.5027   36.0392    6.9273 H   0  0  0  0  0  0  0  0  0  0  0  0
   23.4781   33.2514   11.4230 H   0  0  0  0  0  0  0  0  0  0  0  0
   21.7509   33.5157   11.3533 H   0  0  0  0  0  0  0  0  0  0  0  0
   22.8888   34.8244   11.0264 H   0  0  0  0  0  0  0  0  0  0  0  0
   23.0627   37.9513   14.0604 H   0  0  0  0  0  0  0  0  0  0  0  0
   22.6719   36.7702   12.7781 H   0  0  0  0  0  0  0  0  0  0  0  0
   22.4416   36.3670   14.4917 H   0  0  0  0  0  0  0  0  0  0  0  0
   18.4118   41.1495   13.9404 H   0  0  0  0  0  0  0  0  0  0  0  0
   17.5954   39.5787   14.1467 H   0  0  0  0  0  0  0  0  0  0  0  0
   17.2398   40.5982   12.7350 H   0  0  0  0  0  0  0  0  0  0  0  0
   25.3799   26.6803    8.8892 H   0  0  0  0  0  0  0  0  0  0  0  0
   26.3043   27.9641    8.0821 H   0  0  0  0  0  0  0  0  0  0  0  0
   24.5354   28.1188    8.3327 H   0  0  0  0  0  0  0  0  0  0  0  0
   15.1755   33.9744   13.3450 H   0  0  0  0  0  0  0  0  0  0  0  0
   16.1903   35.9108   14.0054 H   0  0  0  0  0  0  0  0  0  0  0  0
   24.0646   37.2407   11.3170 H   0  0  0  0  0  0  0  0  0  0  0  0
   22.6021   36.3432    6.1522 H   0  0  0  0  0  0  0  0  0  0  0  0
   28.1596   28.7150    9.5748 H   0  0  0  0  0  0  0  0  0  0  0  0
  1  2  1  0  0  0  0
  1 46  1  0  0  0  0
  1 47  2  0  0  0  0
  2  3  1  0  0  0  0
  2 45  1  0  0  0  0
  2 58  1  1  0  0  0
  3  4  1  0  0  0  0
  3 59  1  0  0  0  0
  3 60  1  0  0  0  0
  4  5  1  0  0  0  0
  4 61  1  0  0  0  0
  4 62  1  0  0  0  0
  5  6  1  0  0  0  0
  5 63  1  0  0  0  0
  5 64  1  0  0  0  0
  6 45  1  0  0  0  0
  6 65  1  0  0  0  0
  6 66  1  0  0  0  0
  7  8  1  0  0  0  0
  7 45  1  0  0  0  0
  7 48  2  0  0  0  0
  8  9  1  0  0  0  0
  8 49  1  0  0  0  0
  8 67  1  1  0  0  0
  9 10  1  0  0  0  0
  9 50  1  0  0  0  0
  9 51  1  1  0  0  0
 10 11  1  0  0  0  0
 10 34  1  0  0  0  0
 10 68  1  6  0  0  0
 11 12  1  0  0  0  0
 11 69  1  0  0  0  0
 11 70  1  0  0  0  0
 12 13  1  0  0  0  0
 12 52  1  0  0  0  0
 12 71  1  6  0  0  0
 13 14  1  0  0  0  0
 13 50  1  0  0  0  0
 13 72  1  1  0  0  0
 14 15  1  0  0  0  0
 14 53  1  0  0  0  0
 14 73  1  6  0  0  0
 15 16  1  0  0  0  0
 15 74  1  0  0  0  0
 15 75  1  0  0  0  0
 16 17  1  0  0  0  0
 16 35  1  0  0  0  0
 16 76  1  6  0  0  0
 17 18  1  0  0  0  0
 17 77  1  0  0  0  0
 17 78  1  0  0  0  0
 18 19  1  0  0  0  0
 18 36  1  0  0  0  0
 18 79  1  6  0  0  0
 19 20  1  0  0  0  0
 19 80  1  0  0  0  0
 19 81  1  0  0  0  0
 20 21  1  0  0  0  0
 20 37  1  0  0  0  0
 20 82  1  6  0  0  0
 21 22  1  0  0  0  0
 21 54  1  0  0  0  0
 21 83  1  6  0  0  0
 22 23  1  0  0  0  0
 22 84  1  0  0  0  0
 22 85  1  0  0  0  0
 23 24  1  0  0  0  0
 23 55  1  0  0  0  0
 23 86  1  1  0  0  0
 24 25  1  0  0  0  0
 24 40  1  0  0  0  0
 24 87  1  1  0  0  0
 25 26  1  0  0  0  0
 25 46  1  0  0  0  0
 25 88  1  6  0  0  0
 26 27  2  0  0  0  0
 26 41  1  0  0  0  0
 27 28  1  0  0  0  0
 27 89  1  0  0  0  0
 28 29  1  0  0  0  0
 28 33  1  0  0  0  0
 28 90  1  1  0  0  0
 29 30  1  0  0  0  0
 29 91  1  0  0  0  0
 29 92  1  0  0  0  0
 30 31  1  0  0  0  0
 30 56  1  0  0  0  0
 30 93  1  1  0  0  0
 31 32  1  0  0  0  0
 31 57  1  0  0  0  0
 31 94  1  6  0  0  0
 32 33  1  0  0  0  0
 32 95  1  0  0  0  0
 32 96  1  0  0  0  0
 33 97  1  0  0  0  0
 33 98  1  0  0  0  0
 34 99  1  0  0  0  0
 34100  1  0  0  0  0
 34101  1  0  0  0  0
 35102  1  0  0  0  0
 35103  1  0  0  0  0
 35104  1  0  0  0  0
 36105  1  0  0  0  0
 36106  1  0  0  0  0
 36107  1  0  0  0  0
 37 38  1  0  0  0  0
 37108  1  0  0  0  0
 37109  1  0  0  0  0
 38 39  1  0  0  0  0
 38110  1  0  0  0  0
 38111  1  0  0  0  0
 39112  1  0  0  0  0
 39113  1  0  0  0  0
 39114  1  0  0  0  0
 40115  1  0  0  0  0
 40116  1  0  0  0  0
 40117  1  0  0  0  0
 41118  1  0  0  0  0
 41119  1  0  0  0  0
 41120  1  0  0  0  0
 42 52  1  0  0  0  0
 42121  1  0  0  0  0
 42122  1  0  0  0  0
 42123  1  0  0  0  0
 43 53  1  0  0  0  0
 43124  1  0  0  0  0
 43125  1  0  0  0  0
 43126  1  0  0  0  0
 44 56  1  0  0  0  0
 44127  1  0  0  0  0
 44128  1  0  0  0  0
 44129  1  0  0  0  0
 49130  1  0  0  0  0
 51131  1  0  0  0  0
 54132  1  0  0  0  0
 55133  1  0  0  0  0
 57134  1  0  0  0  0
M  END
$$$$
