FOL
 OpenBabel04111919503D

 49 51  0  0  1  0  0  0  0  0999 V2000
   36.9564   49.3018   52.1207 N   0  3  0  0  0  0  0  0  0  0  0  0
   36.4528   49.4907   53.3729 C   0  0  0  0  0  0  0  0  0  0  0  0
   37.1262   50.1162   54.2771 N   0  0  0  0  0  0  0  0  0  0  0  0
   35.2072   48.9955   53.6586 N   0  3  0  0  0  0  0  0  0  0  0  0
   34.4268   48.3093   52.7374 C   0  0  0  0  0  0  0  0  0  0  0  0
   33.3218   47.8650   53.0360 O   0  0  0  0  0  0  0  0  0  0  0  0
   34.9848   48.1175   51.3808 C   0  0  2  0  0  0  0  0  0  0  0  0
   34.2351   47.4340   50.4713 N   0  0  0  0  0  0  0  0  0  0  0  0
   34.7947   47.2572   49.2545 C   0  0  2  0  0  0  0  0  0  0  0  0
   36.0533   47.7830   48.9666 C   0  0  0  0  0  0  0  0  0  0  0  0
   36.8045   48.4585   49.8837 N   0  0  0  0  0  0  0  0  0  0  0  0
   36.2565   48.6279   51.1156 C   0  0  2  0  0  0  0  0  0  0  0  0
   33.9904   46.5886   48.1677 C   0  0  0  0  0  0  0  0  0  0  0  0
   33.3695   47.6298   47.3824 N   0  0  0  0  0  0  0  0  0  0  0  0
   29.8716   47.1943   45.1226 C   0  0  0  0  0  0  0  0  0  0  0  0
   30.5383   46.0677   45.5874 C   0  0  0  0  0  0  0  0  0  0  0  0
   31.6950   46.1957   46.3512 C   0  0  0  0  0  0  0  0  0  0  0  0
   32.2205   47.4598   46.6480 C   0  0  0  0  0  0  0  0  0  0  0  0
   31.5324   48.5909   46.2003 C   0  0  0  0  0  0  0  0  0  0  0  0
   30.3610   48.4668   45.4529 C   0  0  0  0  0  0  0  0  0  0  0  0
   28.6303   47.0105   44.2968 C   0  0  0  0  0  0  0  0  0  0  0  0
   28.5359   46.0968   43.5040 O   0  0  0  0  0  0  0  0  0  0  0  0
   27.6523   47.9374   44.5778 N   0  0  0  0  0  0  0  0  0  0  0  0
   26.2888   47.8705   44.0230 C   0  0  1  0  0  0  0  0  0  0  0  0
   25.3176   47.2107   45.0284 C   0  0  0  0  0  0  0  0  0  0  0  0
   25.7949   45.8711   45.5830 C   0  0  0  0  0  0  0  0  0  0  0  0
   24.7284   45.1788   46.4505 C   0  0  0  0  0  0  0  0  0  0  0  0
   23.8838   44.4693   45.8282 O   0  0  0  0  0  0  0  0  0  0  0  0
   24.8469   45.3388   47.7023 O   0  0  0  0  0  0  0  0  0  0  0  0
   25.7672   49.2962   43.6241 C   0  0  0  0  0  0  0  0  0  0  0  0
   26.5663   49.9796   42.9070 O   0  0  0  0  0  0  0  0  0  0  0  0
   24.6555   49.6654   44.1041 O   0  0  0  0  0  0  0  0  0  0  0  0
   37.8710   49.6584   51.8860 H   0  0  0  0  0  0  0  0  0  0  0  0
   36.6177   50.1786   55.1685 H   0  0  0  0  0  0  0  0  0  0  0  0
   34.7951   49.1099   54.5673 H   0  0  0  0  0  0  0  0  0  0  0  0
   36.4756   47.6602   47.9726 H   0  0  0  0  0  0  0  0  0  0  0  0
   33.2528   45.9132   48.6236 H   0  0  0  0  0  0  0  0  0  0  0  0
   34.6416   45.9787   47.5277 H   0  0  0  0  0  0  0  0  0  0  0  0
   33.7567   48.5614   47.4133 H   0  0  0  0  0  0  0  0  0  0  0  0
   30.1512   45.0764   45.3595 H   0  0  0  0  0  0  0  0  0  0  0  0
   32.2017   45.3057   46.6951 H   0  0  0  0  0  0  0  0  0  0  0  0
   31.9150   49.5825   46.4414 H   0  0  0  0  0  0  0  0  0  0  0  0
   29.8552   49.3651   45.1110 H   0  0  0  0  0  0  0  0  0  0  0  0
   27.8121   48.7299   45.1709 H   0  0  0  0  0  0  0  0  0  0  0  0
   26.3208   47.2492   43.1156 H   0  0  0  0  0  0  0  0  0  0  0  0
   24.3492   47.0668   44.5308 H   0  0  0  0  0  0  0  0  0  0  0  0
   25.1560   47.8987   45.8690 H   0  0  0  0  0  0  0  0  0  0  0  0
   26.6994   46.0362   46.1814 H   0  0  0  0  0  0  0  0  0  0  0  0
   26.0660   45.2183   44.7444 H   0  0  0  0  0  0  0  0  0  0  0  0
  1  2  1  0  0  0  0
  1 33  1  0  0  0  0
  2  3  2  0  0  0  0
  2  4  1  0  0  0  0
  3 34  1  0  0  0  0
  4  5  1  0  0  0  0
  4 35  1  0  0  0  0
  5  6  2  0  0  0  0
  7  5  1  1  0  0  0
  7  8  1  0  0  0  0
  7 12  1  0  0  0  0
  8  9  1  0  0  0  0
  9 10  1  0  0  0  0
  9 13  1  6  0  0  0
 10 11  1  0  0  0  0
 10 36  1  0  0  0  0
 11 12  1  0  0  0  0
 12  1  1  1  0  0  0
 13 14  1  0  0  0  0
 13 37  1  0  0  0  0
 13 38  1  0  0  0  0
 14 18  1  0  0  0  0
 14 39  1  0  0  0  0
 15 16  2  0  0  0  0
 15 20  1  0  0  0  0
 15 21  1  0  0  0  0
 16 17  1  0  0  0  0
 16 40  1  0  0  0  0
 17 18  2  0  0  0  0
 17 41  1  0  0  0  0
 18 19  1  0  0  0  0
 19 20  2  0  0  0  0
 19 42  1  0  0  0  0
 20 43  1  0  0  0  0
 21 22  2  0  0  0  0
 21 23  1  0  0  0  0
 23 24  1  0  0  0  0
 23 44  1  0  0  0  0
 24 25  1  0  0  0  0
 24 30  1  0  0  0  0
 24 45  1  6  0  0  0
 25 26  1  0  0  0  0
 25 46  1  0  0  0  0
 25 47  1  0  0  0  0
 26 27  1  0  0  0  0
 26 48  1  0  0  0  0
 26 49  1  0  0  0  0
 27 28  2  0  0  0  0
 27 29  1  0  0  0  0
 30 31  2  0  0  0  0
 30 32  1  0  0  0  0
M  CHG  2   1   1   4   1
M  END
$$$$
