FVQ
 OpenBabel04111917473D

 38 39  0  0  1  0  0  0  0  0999 V2000
  -14.6768    3.9542   -9.5924 O   0  0  0  0  0  0  0  0  0  0  0  0
  -15.3955    3.8128  -10.8069 C   0  0  0  0  0  0  0  0  0  0  0  0
  -15.1663    2.4926  -11.5080 C   0  0  1  0  0  0  0  0  0  0  0  0
  -13.7599    2.2347  -11.5256 O   0  0  0  0  0  0  0  0  0  0  0  0
  -15.9760    1.4151  -10.8037 C   0  0  1  0  0  0  0  0  0  0  0  0
  -17.3857    1.7143  -10.8723 O   0  0  0  0  0  0  0  0  0  0  0  0
  -15.6757    0.0750  -11.4587 C   0  0  2  0  0  0  0  0  0  0  0  0
  -16.2429   -0.9736  -10.6554 O   0  0  0  0  0  0  0  0  0  0  0  0
  -14.1662   -0.1592  -11.5536 C   0  0  2  0  0  0  0  0  0  0  0  0
  -13.6109   -0.4014  -10.2553 O   0  0  0  0  0  0  0  0  0  0  0  0
  -13.4403    1.0231  -12.1905 C   0  0  1  0  0  0  0  0  0  0  0  0
  -13.8229    1.0789  -13.5605 O   0  0  0  0  0  0  0  0  0  0  0  0
  -13.0632    2.0223  -14.2891 C   0  0  0  0  0  0  0  0  0  0  0  0
  -13.6627    2.1651  -15.6448 C   0  0  0  0  0  0  0  0  0  0  0  0
  -14.0836    2.3101  -16.7428 C   0  0  0  0  0  0  0  0  0  0  0  0
  -14.6440    2.5803  -18.0626 C   0  0  0  0  0  0  0  0  0  0  0  0
  -13.8512    3.1466  -19.0371 C   0  0  0  0  0  0  0  0  0  0  0  0
  -14.3812    3.4402  -20.2926 C   0  0  0  0  0  0  0  0  0  0  0  0
  -15.7120    3.1340  -20.5201 C   0  0  0  0  0  0  0  0  0  0  0  0
  -16.5238    2.5823  -19.5821 N   0  0  0  0  0  0  0  0  0  0  0  0
  -15.9802    2.3166  -18.3591 C   0  0  0  0  0  0  0  0  0  0  0  0
  -14.8897    4.8392   -9.2516 H   0  0  0  0  0  0  0  0  0  0  0  0
  -15.1012    4.5996  -11.4963 H   0  0  0  0  0  0  0  0  0  0  0  0
  -16.4471    3.9207  -10.5658 H   0  0  0  0  0  0  0  0  0  0  0  0
  -15.5384    2.6003  -12.5389 H   0  0  0  0  0  0  0  0  0  0  0  0
  -15.6913    1.3496   -9.7526 H   0  0  0  0  0  0  0  0  0  0  0  0
  -17.5615    2.5014  -10.3319 H   0  0  0  0  0  0  0  0  0  0  0  0
  -16.1322    0.0343  -12.4577 H   0  0  0  0  0  0  0  0  0  0  0  0
  -16.0116   -1.8102  -11.0862 H   0  0  0  0  0  0  0  0  0  0  0  0
  -14.0047   -1.0528  -12.1621 H   0  0  0  0  0  0  0  0  0  0  0  0
  -14.1076   -1.1477   -9.8781 H   0  0  0  0  0  0  0  0  0  0  0  0
  -12.3609    0.8444  -12.0851 H   0  0  0  0  0  0  0  0  0  0  0  0
  -12.0258    1.6799  -14.3547 H   0  0  0  0  0  0  0  0  0  0  0  0
  -13.0824    3.0060  -13.8110 H   0  0  0  0  0  0  0  0  0  0  0  0
  -12.8026    3.3707  -18.8332 H   0  0  0  0  0  0  0  0  0  0  0  0
  -13.7729    3.8934  -21.0754 H   0  0  0  0  0  0  0  0  0  0  0  0
  -16.1625    3.3296  -21.4897 H   0  0  0  0  0  0  0  0  0  0  0  0
  -16.6535    1.8824  -17.6271 H   0  0  0  0  0  0  0  0  0  0  0  0
  1  2  1  0  0  0  0
  1 22  1  0  0  0  0
  2  3  1  0  0  0  0
  2 23  1  0  0  0  0
  2 24  1  0  0  0  0
  3  4  1  0  0  0  0
  3  5  1  0  0  0  0
  3 25  1  6  0  0  0
  4 11  1  0  0  0  0
  5  6  1  0  0  0  0
  5  7  1  0  0  0  0
  5 26  1  1  0  0  0
  6 27  1  0  0  0  0
  7  8  1  0  0  0  0
  7  9  1  0  0  0  0
  7 28  1  6  0  0  0
  8 29  1  0  0  0  0
  9 10  1  0  0  0  0
  9 11  1  0  0  0  0
  9 30  1  6  0  0  0
 10 31  1  0  0  0  0
 11 12  1  0  0  0  0
 11 32  1  1  0  0  0
 12 13  1  0  0  0  0
 13 14  1  0  0  0  0
 13 33  1  0  0  0  0
 13 34  1  0  0  0  0
 14 15  3  0  0  0  0
 15 16  1  0  0  0  0
 16 17  2  0  0  0  0
 16 21  1  0  0  0  0
 17 18  1  0  0  0  0
 17 35  1  0  0  0  0
 18 19  2  0  0  0  0
 18 36  1  0  0  0  0
 19 20  1  0  0  0  0
 19 37  1  0  0  0  0
 20 21  2  0  0  0  0
 21 38  1  0  0  0  0
M  END
$$$$
