FYM
 OpenBabel04111918193D

 64 67  0  0  1  0  0  0  0  0999 V2000
    9.3952   32.8257    3.6928 C   0  0  0  0  0  0  0  0  0  0  0  0
    9.5758   33.7396    2.6687 C   0  0  0  0  0  0  0  0  0  0  0  0
    6.8110   36.7762    0.7020 C   0  0  0  0  0  0  0  0  0  0  0  0
    7.1488   34.7875   -0.6237 C   0  0  0  0  0  0  0  0  0  0  0  0
    9.8269   31.5219    3.5237 C   0  0  0  0  0  0  0  0  0  0  0  0
    6.4467   35.9878    1.7971 C   0  0  0  0  0  0  0  0  0  0  0  0
    6.7957   34.0042    0.4711 C   0  0  0  0  0  0  0  0  0  0  0  0
   11.0012   36.0491   -4.0672 C   0  0  0  0  0  0  0  0  0  0  0  0
   13.1665   35.1024   -2.5121 C   0  0  0  0  0  0  0  0  0  0  0  0
   11.0527   36.2857   -2.6838 C   0  0  0  0  0  0  0  0  0  0  0  0
   10.6468   32.0176    1.2812 C   0  0  0  0  0  0  0  0  0  0  0  0
    7.1664   36.1809   -0.5166 C   0  0  0  0  0  0  0  0  0  0  0  0
   10.1895   33.3549    1.4671 C   0  0  0  0  0  0  0  0  0  0  0  0
   12.1285   35.8212   -1.8921 C   0  0  0  0  0  0  0  0  0  0  0  0
   12.0409   35.3476   -4.6222 C   0  0  0  0  0  0  0  0  0  0  0  0
   13.0928   34.8932   -3.8686 C   0  0  0  0  0  0  0  0  0  0  0  0
    6.4300   34.5921    1.6803 C   0  0  0  0  0  0  0  0  0  0  0  0
   10.4689   31.1096    2.3376 C   0  0  0  0  0  0  0  0  0  0  0  0
    9.9365   37.0352   -2.0742 C   0  0  0  0  0  0  0  0  0  0  0  0
   11.3753   31.6413    0.0085 C   0  0  0  0  0  0  0  0  0  0  0  0
   13.3934   34.2812   -5.9181 C   0  0  0  0  0  0  0  0  0  0  0  0
   12.5321   35.0271    1.7851 C   0  0  0  0  0  0  0  0  0  0  0  0
    5.9399   32.4936    2.5987 C   0  0  0  0  0  0  0  0  0  0  0  0
   10.9560   29.0259    3.3482 C   0  0  0  0  0  0  0  0  0  0  0  0
    7.5161   37.0343   -1.7062 C   0  0  0  0  0  0  0  0  0  0  0  0
   10.4708   34.4391    0.4539 C   0  0  0  0  0  0  0  0  0  0  0  0
   12.1916   36.0504   -0.4091 C   0  0  0  0  0  0  0  0  0  0  0  0
    8.6946   36.5479   -2.3789 N   0  0  0  0  0  0  0  0  0  0  0  0
   11.9214   34.8581    0.4389 N   0  3  1  0  0  0  0  0  0  0  0  0
   11.0715   30.5758   -0.5958 O   0  0  0  0  0  0  0  0  0  0  0  0
   10.1583   37.9677   -1.3157 O   0  0  0  0  0  0  0  0  0  0  0  0
   12.1920   32.5401   -0.4209 O   0  0  0  0  0  0  0  0  0  0  0  0
   12.1645   35.0327   -5.9421 O   0  0  0  0  0  0  0  0  0  0  0  0
   14.0217   34.2385   -4.6261 O   0  0  0  0  0  0  0  0  0  0  0  0
    6.0761   33.9005    2.8046 O   0  0  0  0  0  0  0  0  0  0  0  0
   10.9687   29.8368    2.1853 O   0  0  0  0  0  0  0  0  0  0  0  0
    8.9153   33.1171    4.6219 H   0  0  0  0  0  0  0  0  0  0  0  0
    9.2447   34.7601    2.8277 H   0  0  0  0  0  0  0  0  0  0  0  0
    6.8114   37.8592    0.8037 H   0  0  0  0  0  0  0  0  0  0  0  0
    7.4204   34.2781   -1.5444 H   0  0  0  0  0  0  0  0  0  0  0  0
    9.6613   30.8480    4.3554 H   0  0  0  0  0  0  0  0  0  0  0  0
    6.1756   36.4584    2.7350 H   0  0  0  0  0  0  0  0  0  0  0  0
    6.8353   32.9277    0.3401 H   0  0  0  0  0  0  0  0  0  0  0  0
   10.1846   36.4088   -4.6801 H   0  0  0  0  0  0  0  0  0  0  0  0
   14.0043   34.7022   -1.9451 H   0  0  0  0  0  0  0  0  0  0  0  0
   14.0890   34.7400   -6.6289 H   0  0  0  0  0  0  0  0  0  0  0  0
   13.1800   33.2548   -6.2364 H   0  0  0  0  0  0  0  0  0  0  0  0
   12.3796   34.1373    2.3968 H   0  0  0  0  0  0  0  0  0  0  0  0
   12.0835   35.9077    2.2551 H   0  0  0  0  0  0  0  0  0  0  0  0
   13.6082   35.1687    1.6522 H   0  0  0  0  0  0  0  0  0  0  0  0
    5.6355   32.0254    3.5366 H   0  0  0  0  0  0  0  0  0  0  0  0
    6.8945   32.0444    2.3026 H   0  0  0  0  0  0  0  0  0  0  0  0
    5.1671   32.2937    1.8485 H   0  0  0  0  0  0  0  0  0  0  0  0
   11.3738   28.0457    3.1049 H   0  0  0  0  0  0  0  0  0  0  0  0
    9.9310   28.8625    3.7008 H   0  0  0  0  0  0  0  0  0  0  0  0
   11.5772   29.4776    4.1311 H   0  0  0  0  0  0  0  0  0  0  0  0
    7.6841   38.0711   -1.3960 H   0  0  0  0  0  0  0  0  0  0  0  0
    6.6912   37.0128   -2.4253 H   0  0  0  0  0  0  0  0  0  0  0  0
    9.8832   35.3356    0.6812 H   0  0  0  0  0  0  0  0  0  0  0  0
   10.1899   34.1146   -0.5557 H   0  0  0  0  0  0  0  0  0  0  0  0
   11.5358   36.8362   -0.0369 H   0  0  0  0  0  0  0  0  0  0  0  0
   13.2064   36.3996   -0.1754 H   0  0  0  0  0  0  0  0  0  0  0  0
    8.6077   35.7144   -2.9472 H   0  0  0  0  0  0  0  0  0  0  0  0
   12.3490   33.9947   -0.0051 H   0  0  0  0  0  0  0  0  0  0  0  0
  1  2  2  0  0  0  0
  1  5  1  0  0  0  0
  1 37  1  0  0  0  0
  2 13  1  0  0  0  0
  2 38  1  0  0  0  0
  3  6  2  0  0  0  0
  3 12  1  0  0  0  0
  3 39  1  0  0  0  0
  4  7  1  0  0  0  0
  4 12  2  0  0  0  0
  4 40  1  0  0  0  0
  5 18  2  0  0  0  0
  5 41  1  0  0  0  0
  6 17  1  0  0  0  0
  6 42  1  0  0  0  0
  7 17  2  0  0  0  0
  7 43  1  0  0  0  0
  8 10  2  0  0  0  0
  8 15  1  0  0  0  0
  8 44  1  0  0  0  0
  9 14  2  0  0  0  0
  9 16  1  0  0  0  0
  9 45  1  0  0  0  0
 10 14  1  0  0  0  0
 10 19  1  0  0  0  0
 11 13  2  0  0  0  0
 11 18  1  0  0  0  0
 11 20  1  0  0  0  0
 12 25  1  0  0  0  0
 13 26  1  0  0  0  0
 14 27  1  0  0  0  0
 15 16  2  0  0  0  0
 15 33  1  0  0  0  0
 16 34  1  0  0  0  0
 17 35  1  0  0  0  0
 18 36  1  0  0  0  0
 19 28  1  0  0  0  0
 19 31  2  0  0  0  0
 20 30  2  0  0  0  0
 20 32  1  0  0  0  0
 21 33  1  0  0  0  0
 21 34  1  0  0  0  0
 21 46  1  0  0  0  0
 21 47  1  0  0  0  0
 22 29  1  0  0  0  0
 22 48  1  0  0  0  0
 22 49  1  0  0  0  0
 22 50  1  0  0  0  0
 23 35  1  0  0  0  0
 23 51  1  0  0  0  0
 23 52  1  0  0  0  0
 23 53  1  0  0  0  0
 24 36  1  0  0  0  0
 24 54  1  0  0  0  0
 24 55  1  0  0  0  0
 24 56  1  0  0  0  0
 25 28  1  0  0  0  0
 25 57  1  0  0  0  0
 25 58  1  0  0  0  0
 26 29  1  0  0  0  0
 26 59  1  0  0  0  0
 26 60  1  0  0  0  0
 27 29  1  0  0  0  0
 27 61  1  0  0  0  0
 27 62  1  0  0  0  0
 28 63  1  0  0  0  0
 29 64  1  6  0  0  0
M  CHG  1  29   1
M  END
$$$$
