G07
 OpenBabel04111919233D

 78 81  0  0  1  0  0  0  0  0999 V2000
    8.7590   15.2402    2.5925 O   0  0  0  0  0  0  0  0  0  0  0  0
    8.1356   16.4377    2.9698 C   0  0  1  0  0  0  0  0  0  0  0  0
    8.4918   16.8091    4.2798 O   0  0  0  0  0  0  0  0  0  0  0  0
    7.9983   16.0116    5.3544 C   0  0  2  0  0  0  0  0  0  0  0  0
    6.7509   16.5835    6.0277 C   0  0  2  0  0  0  0  0  0  0  0  0
    5.7067   17.3171    5.2179 C   0  0  0  0  0  0  0  0  0  0  0  0
    5.8246   18.7712    5.6310 C   0  0  0  0  0  0  0  0  0  0  0  0
    7.0579   18.9008    6.3320 O   0  0  0  0  0  0  0  0  0  0  0  0
    7.3128   17.6480    6.9611 C   0  0  2  0  0  0  0  0  0  0  0  0
    8.7062   17.4072    7.1217 O   0  0  0  0  0  0  0  0  0  0  0  0
    8.9834   16.1337    6.5227 C   0  0  0  0  0  0  0  0  0  0  0  0
    8.5442   17.5457    2.1362 N   0  3  0  0  0  0  0  0  0  0  0  0
    8.5860   17.3757    0.6325 C   0  0  1  0  0  0  0  0  0  0  0  0
    7.5283   18.3220    0.0254 C   0  0  0  0  0  0  0  0  0  0  0  0
    6.1515   18.0164    0.5485 C   0  0  0  0  0  0  0  0  0  0  0  0
    5.5347   16.7982    0.2428 C   0  0  0  0  0  0  0  0  0  0  0  0
    4.2930   16.4856    0.7870 C   0  0  0  0  0  0  0  0  0  0  0  0
    3.6574   17.3938    1.6268 C   0  0  0  0  0  0  0  0  0  0  0  0
    4.2599   18.6185    1.9276 C   0  0  0  0  0  0  0  0  0  0  0  0
    5.5020   18.9303    1.3919 C   0  0  0  0  0  0  0  0  0  0  0  0
   10.0207   17.7382    0.1820 C   0  0  2  0  0  0  0  0  0  0  0  0
   10.2682   19.1171    0.4938 O   0  0  0  0  0  0  0  0  0  0  0  0
   10.3687   17.3625   -1.2751 C   0  0  0  0  0  0  0  0  0  0  0  0
   10.3765   15.8807   -1.4118 N   0  0  0  0  0  0  0  0  0  0  0  0
   11.7059   15.2895   -1.7637 C   0  0  0  0  0  0  0  0  0  0  0  0
   12.4980   14.7209   -0.5777 C   0  0  0  0  0  0  0  0  0  0  0  0
   13.1052   13.3759   -1.0014 C   0  0  0  0  0  0  0  0  0  0  0  0
   11.7110   14.4968    0.7083 C   0  0  0  0  0  0  0  0  0  0  0  0
    9.0329   15.1330   -2.1817 S   0  0  0  0  0  0  0  0  0  0  0  0
    7.9145   16.0490   -2.0487 O   0  0  0  0  0  0  0  0  0  0  0  0
    8.9381   13.8110   -1.6250 O   0  0  0  0  0  0  0  0  0  0  0  0
    9.5114   15.0340   -3.8838 C   0  0  0  0  0  0  0  0  0  0  0  0
    9.9962   13.8173   -4.3706 C   0  0  0  0  0  0  0  0  0  0  0  0
   10.5010   13.7540   -5.6656 C   0  0  0  0  0  0  0  0  0  0  0  0
    9.4879   16.1752   -4.6777 C   0  0  0  0  0  0  0  0  0  0  0  0
    9.9860   16.0979   -5.9784 C   0  0  0  0  0  0  0  0  0  0  0  0
   10.4998   14.8892   -6.4863 C   0  0  0  0  0  0  0  0  0  0  0  0
   11.0489   14.8189   -7.8941 C   0  0  0  0  0  0  0  0  0  0  0  0
   11.0251   15.8875   -8.5709 O   0  0  0  0  0  0  0  0  0  0  0  0
   11.4872   13.6865   -8.2856 O   0  0  0  0  0  0  0  0  0  0  0  0
    8.1299   14.7584    2.0217 H   0  0  0  0  0  0  0  0  0  0  0  0
    7.0574   16.3194    2.8764 H   0  0  0  0  0  0  0  0  0  0  0  0
    7.8926   14.9670    5.0459 H   0  0  0  0  0  0  0  0  0  0  0  0
    6.2940   15.7810    6.6202 H   0  0  0  0  0  0  0  0  0  0  0  0
    4.7016   16.9423    5.4374 H   0  0  0  0  0  0  0  0  0  0  0  0
    5.8284   17.2191    4.1429 H   0  0  0  0  0  0  0  0  0  0  0  0
    5.0015   19.0586    6.2948 H   0  0  0  0  0  0  0  0  0  0  0  0
    5.8270   19.4496    4.7731 H   0  0  0  0  0  0  0  0  0  0  0  0
    6.8260   17.6310    7.9429 H   0  0  0  0  0  0  0  0  0  0  0  0
   10.0363   16.0991    6.2311 H   0  0  0  0  0  0  0  0  0  0  0  0
    8.7924   15.3696    7.2855 H   0  0  0  0  0  0  0  0  0  0  0  0
    7.9693   18.3390    2.4230 H   0  0  0  0  0  0  0  0  0  0  0  0
    8.3619   16.3267    0.4237 H   0  0  0  0  0  0  0  0  0  0  0  0
    7.5193   18.2740   -1.0682 H   0  0  0  0  0  0  0  0  0  0  0  0
    7.7770   19.3625    0.2663 H   0  0  0  0  0  0  0  0  0  0  0  0
    6.0039   16.0805   -0.4291 H   0  0  0  0  0  0  0  0  0  0  0  0
    3.8122   15.5419    0.5325 H   0  0  0  0  0  0  0  0  0  0  0  0
    2.6732   17.1526    2.0371 H   0  0  0  0  0  0  0  0  0  0  0  0
    3.7452   19.3287    2.5712 H   0  0  0  0  0  0  0  0  0  0  0  0
    5.9475   19.8930    1.6287 H   0  0  0  0  0  0  0  0  0  0  0  0
   10.7193   17.2068    0.8272 H   0  0  0  0  0  0  0  0  0  0  0  0
    9.9214   19.6829   -0.2201 H   0  0  0  0  0  0  0  0  0  0  0  0
   11.3543   17.7804   -1.5124 H   0  0  0  0  0  0  0  0  0  0  0  0
    9.6844   17.8426   -1.9802 H   0  0  0  0  0  0  0  0  0  0  0  0
   12.3138   16.0272   -2.3045 H   0  0  0  0  0  0  0  0  0  0  0  0
   11.5763   14.4816   -2.4848 H   0  0  0  0  0  0  0  0  0  0  0  0
   13.3218   15.4136   -0.3612 H   0  0  0  0  0  0  0  0  0  0  0  0
   13.7412   12.9637   -0.2130 H   0  0  0  0  0  0  0  0  0  0  0  0
   13.7096   13.4829   -1.9082 H   0  0  0  0  0  0  0  0  0  0  0  0
   12.3116   12.6470   -1.2096 H   0  0  0  0  0  0  0  0  0  0  0  0
   11.3735   15.4328    1.1421 H   0  0  0  0  0  0  0  0  0  0  0  0
   12.3424   14.0279    1.4697 H   0  0  0  0  0  0  0  0  0  0  0  0
   10.8389   13.8582    0.5432 H   0  0  0  0  0  0  0  0  0  0  0  0
   10.0355   12.9259   -3.7471 H   0  0  0  0  0  0  0  0  0  0  0  0
   10.9113   12.8193   -6.0500 H   0  0  0  0  0  0  0  0  0  0  0  0
    9.1043   17.1224   -4.3123 H   0  0  0  0  0  0  0  0  0  0  0  0
    9.9864   16.9798   -6.6196 H   0  0  0  0  0  0  0  0  0  0  0  0
    9.4757   17.7793    2.4946 H   0  0  0  0  0  0  0  0  0  0  0  0
  1  2  1  0  0  0  0
  1 41  1  0  0  0  0
  2  3  1  0  0  0  0
  2 12  1  0  0  0  0
  2 42  1  6  0  0  0
  3  4  1  0  0  0  0
  4  5  1  0  0  0  0
  4 11  1  0  0  0  0
  4 43  1  6  0  0  0
  5  6  1  0  0  0  0
  5  9  1  0  0  0  0
  5 44  1  1  0  0  0
  6  7  1  0  0  0  0
  6 45  1  0  0  0  0
  6 46  1  0  0  0  0
  7  8  1  0  0  0  0
  7 47  1  0  0  0  0
  7 48  1  0  0  0  0
  8  9  1  0  0  0  0
  9 10  1  0  0  0  0
  9 49  1  1  0  0  0
 10 11  1  0  0  0  0
 11 50  1  0  0  0  0
 11 51  1  0  0  0  0
 12 13  1  0  0  0  0
 12 52  1  0  0  0  0
 12 78  1  0  0  0  0
 13 14  1  0  0  0  0
 13 21  1  0  0  0  0
 13 53  1  6  0  0  0
 14 15  1  0  0  0  0
 14 54  1  0  0  0  0
 14 55  1  0  0  0  0
 15 16  2  0  0  0  0
 15 20  1  0  0  0  0
 16 17  1  0  0  0  0
 16 56  1  0  0  0  0
 17 18  2  0  0  0  0
 17 57  1  0  0  0  0
 18 19  1  0  0  0  0
 18 58  1  0  0  0  0
 19 20  2  0  0  0  0
 19 59  1  0  0  0  0
 20 60  1  0  0  0  0
 21 22  1  0  0  0  0
 21 23  1  0  0  0  0
 21 61  1  1  0  0  0
 22 62  1  0  0  0  0
 23 24  1  0  0  0  0
 23 63  1  0  0  0  0
 23 64  1  0  0  0  0
 24 25  1  0  0  0  0
 24 29  1  0  0  0  0
 25 26  1  0  0  0  0
 25 65  1  0  0  0  0
 25 66  1  0  0  0  0
 26 27  1  0  0  0  0
 26 28  1  0  0  0  0
 26 67  1  0  0  0  0
 27 68  1  0  0  0  0
 27 69  1  0  0  0  0
 27 70  1  0  0  0  0
 28 71  1  0  0  0  0
 28 72  1  0  0  0  0
 28 73  1  0  0  0  0
 29 30  2  0  0  0  0
 29 31  2  0  0  0  0
 29 32  1  0  0  0  0
 32 33  2  0  0  0  0
 32 35  1  0  0  0  0
 33 34  1  0  0  0  0
 33 74  1  0  0  0  0
 34 37  2  0  0  0  0
 34 75  1  0  0  0  0
 35 36  2  0  0  0  0
 35 76  1  0  0  0  0
 36 37  1  0  0  0  0
 36 77  1  0  0  0  0
 37 38  1  0  0  0  0
 38 39  2  0  0  0  0
 38 40  1  0  0  0  0
M  CHG  1  12   1
M  END
$$$$
