G10
 OpenBabel04111922033D

 75 78  0  0  1  0  0  0  0  0999 V2000
    8.0985   14.3290   14.0644 N   0  0  0  0  0  0  0  0  0  0  0  0
    8.6290   15.5136   14.5381 C   0  0  0  0  0  0  0  0  0  0  0  0
    9.9661   15.7994   14.2898 C   0  0  0  0  0  0  0  0  0  0  0  0
   10.5366   16.9720   14.7685 C   0  0  0  0  0  0  0  0  0  0  0  0
    9.7899   17.8519   15.5444 C   0  0  0  0  0  0  0  0  0  0  0  0
    8.4401   17.5924   15.8089 C   0  0  0  0  0  0  0  0  0  0  0  0
    7.8725   16.4166   15.2955 C   0  0  0  0  0  0  0  0  0  0  0  0
   10.5981   19.3585   16.0566 S   0  0  0  0  0  0  0  0  0  0  0  0
   11.6785   19.6005   15.1276 O   0  0  0  0  0  0  0  0  0  0  0  0
    9.5711   20.3444   16.2879 O   0  0  0  0  0  0  0  0  0  0  0  0
   11.2963   18.9573   17.5503 N   0  0  0  0  0  0  0  0  0  0  0  0
   10.3590   18.6002   18.6348 C   0  0  0  0  0  0  0  0  0  0  0  0
   10.6975   19.3077   19.9484 C   0  0  0  0  0  0  0  0  0  0  0  0
   10.5839   20.8232   19.7975 C   0  0  0  0  0  0  0  0  0  0  0  0
    9.7376   18.8198   21.0311 C   0  0  0  0  0  0  0  0  0  0  0  0
   12.5797   18.2264   17.5450 C   0  0  0  0  0  0  0  0  0  0  0  0
   13.7103   19.1106   18.0978 C   0  0  1  0  0  0  0  0  0  0  0  0
   14.8359   18.2840   18.4498 O   0  0  0  0  0  0  0  0  0  0  0  0
   14.1439   20.2457   17.1460 C   0  0  1  0  0  0  0  0  0  0  0  0
   15.0273   21.1513   17.8766 N   0  0  0  0  0  0  0  0  0  0  0  0
   14.6631   22.4070   18.2404 C   0  0  0  0  0  0  0  0  0  0  0  0
   13.5909   22.9254   18.0297 O   0  0  0  0  0  0  0  0  0  0  0  0
   15.7264   23.0050   18.8397 O   0  0  0  0  0  0  0  0  0  0  0  0
   15.5734   24.4032   19.1218 C   0  0  1  0  0  0  0  0  0  0  0  0
   16.1293   24.6361   20.5117 C   0  0  0  0  0  0  0  0  0  0  0  0
   17.5508   24.7348   20.3500 O   0  0  0  0  0  0  0  0  0  0  0  0
   17.8195   25.1572   19.0078 C   0  0  1  0  0  0  0  0  0  0  0  0
   18.6757   24.2142   18.3512 O   0  0  0  0  0  0  0  0  0  0  0  0
   18.0100   23.7494   17.1637 C   0  0  0  0  0  0  0  0  0  0  0  0
   16.8644   24.6979   16.9151 C   0  0  0  0  0  0  0  0  0  0  0  0
   16.5022   25.2388   18.2614 C   0  0  1  0  0  0  0  0  0  0  0  0
   14.8743   19.7034   15.9048 C   0  0  0  0  0  0  0  0  0  0  0  0
   16.6564   21.1038   14.8009 C   0  0  0  0  0  0  0  0  0  0  0  0
   17.0451   22.1621   13.9817 C   0  0  0  0  0  0  0  0  0  0  0  0
   16.0833   22.9058   13.3024 C   0  0  0  0  0  0  0  0  0  0  0  0
   14.7386   22.5604   13.4048 C   0  0  0  0  0  0  0  0  0  0  0  0
   14.3459   21.5187   14.2416 C   0  0  0  0  0  0  0  0  0  0  0  0
   15.3006   20.7897   14.9554 C   0  0  0  0  0  0  0  0  0  0  0  0
   15.8167   24.1374   16.2949 F   0  0  0  0  0  0  0  0  0  0  0  0
   17.3055   25.7049   16.1162 F   0  0  0  0  0  0  0  0  0  0  0  0
    8.6563   13.7307   13.4668 H   0  0  0  0  0  0  0  0  0  0  0  0
    7.1361   14.0794   14.2376 H   0  0  0  0  0  0  0  0  0  0  0  0
   10.5828   15.1131   13.7170 H   0  0  0  0  0  0  0  0  0  0  0  0
   11.5709   17.1883   14.5132 H   0  0  0  0  0  0  0  0  0  0  0  0
    7.8288   18.2852   16.3908 H   0  0  0  0  0  0  0  0  0  0  0  0
    6.8246   16.1962   15.4922 H   0  0  0  0  0  0  0  0  0  0  0  0
   10.3535   17.5132   18.7722 H   0  0  0  0  0  0  0  0  0  0  0  0
    9.3456   18.8933   18.3456 H   0  0  0  0  0  0  0  0  0  0  0  0
   11.7148   19.0576   20.2658 H   0  0  0  0  0  0  0  0  0  0  0  0
   10.8011   21.3254   20.7452 H   0  0  0  0  0  0  0  0  0  0  0  0
    9.5736   21.1085   19.4840 H   0  0  0  0  0  0  0  0  0  0  0  0
   11.2893   21.1974   19.0493 H   0  0  0  0  0  0  0  0  0  0  0  0
    9.8168   17.7346   21.1528 H   0  0  0  0  0  0  0  0  0  0  0  0
    8.7009   19.0576   20.7695 H   0  0  0  0  0  0  0  0  0  0  0  0
    9.9651   19.2877   21.9931 H   0  0  0  0  0  0  0  0  0  0  0  0
   12.8329   17.8827   16.5398 H   0  0  0  0  0  0  0  0  0  0  0  0
   12.5123   17.3086   18.1414 H   0  0  0  0  0  0  0  0  0  0  0  0
   13.3823   19.5731   19.0326 H   0  0  0  0  0  0  0  0  0  0  0  0
   15.1233   17.7990   17.6576 H   0  0  0  0  0  0  0  0  0  0  0  0
   13.2581   20.8129   16.8380 H   0  0  0  0  0  0  0  0  0  0  0  0
   15.9590   20.8507   18.1260 H   0  0  0  0  0  0  0  0  0  0  0  0
   14.5317   24.7345   19.0546 H   0  0  0  0  0  0  0  0  0  0  0  0
   15.8980   23.8196   21.2029 H   0  0  0  0  0  0  0  0  0  0  0  0
   15.7826   25.5815   20.9413 H   0  0  0  0  0  0  0  0  0  0  0  0
   18.3311   26.1252   19.0521 H   0  0  0  0  0  0  0  0  0  0  0  0
   17.6812   22.7188   17.3241 H   0  0  0  0  0  0  0  0  0  0  0  0
   18.7244   23.7581   16.3366 H   0  0  0  0  0  0  0  0  0  0  0  0
   16.1468   26.2749   18.2122 H   0  0  0  0  0  0  0  0  0  0  0  0
   14.2412   18.9964   15.3608 H   0  0  0  0  0  0  0  0  0  0  0  0
   15.7623   19.1403   16.2162 H   0  0  0  0  0  0  0  0  0  0  0  0
   17.4131   20.5359   15.3341 H   0  0  0  0  0  0  0  0  0  0  0  0
   18.0970   22.4088   13.8759 H   0  0  0  0  0  0  0  0  0  0  0  0
   16.3739   23.7570   12.6939 H   0  0  0  0  0  0  0  0  0  0  0  0
   13.9893   23.1046   12.8407 H   0  0  0  0  0  0  0  0  0  0  0  0
   13.2870   21.2955   14.3439 H   0  0  0  0  0  0  0  0  0  0  0  0
  1  2  1  0  0  0  0
  1 41  1  0  0  0  0
  1 42  1  0  0  0  0
  2  3  2  0  0  0  0
  2  7  1  0  0  0  0
  3  4  1  0  0  0  0
  3 43  1  0  0  0  0
  4  5  2  0  0  0  0
  4 44  1  0  0  0  0
  5  6  1  0  0  0  0
  5  8  1  0  0  0  0
  6  7  2  0  0  0  0
  6 45  1  0  0  0  0
  7 46  1  0  0  0  0
  8  9  2  0  0  0  0
  8 10  2  0  0  0  0
  8 11  1  0  0  0  0
 11 12  1  0  0  0  0
 11 16  1  0  0  0  0
 12 13  1  0  0  0  0
 12 47  1  0  0  0  0
 12 48  1  0  0  0  0
 13 14  1  0  0  0  0
 13 15  1  0  0  0  0
 13 49  1  0  0  0  0
 14 50  1  0  0  0  0
 14 51  1  0  0  0  0
 14 52  1  0  0  0  0
 15 53  1  0  0  0  0
 15 54  1  0  0  0  0
 15 55  1  0  0  0  0
 16 17  1  0  0  0  0
 16 56  1  0  0  0  0
 16 57  1  0  0  0  0
 17 18  1  0  0  0  0
 17 19  1  0  0  0  0
 17 58  1  1  0  0  0
 18 59  1  0  0  0  0
 19 20  1  0  0  0  0
 19 32  1  0  0  0  0
 19 60  1  6  0  0  0
 20 21  1  0  0  0  0
 20 61  1  0  0  0  0
 21 22  2  0  0  0  0
 21 23  1  0  0  0  0
 23 24  1  0  0  0  0
 24 25  1  0  0  0  0
 24 31  1  0  0  0  0
 24 62  1  6  0  0  0
 25 26  1  0  0  0  0
 25 63  1  0  0  0  0
 25 64  1  0  0  0  0
 26 27  1  0  0  0  0
 27 28  1  0  0  0  0
 27 31  1  0  0  0  0
 27 65  1  1  0  0  0
 28 29  1  0  0  0  0
 29 30  1  0  0  0  0
 29 66  1  0  0  0  0
 29 67  1  0  0  0  0
 30 31  1  0  0  0  0
 30 39  1  0  0  0  0
 30 40  1  0  0  0  0
 31 68  1  6  0  0  0
 32 38  1  0  0  0  0
 32 69  1  0  0  0  0
 32 70  1  0  0  0  0
 33 34  2  0  0  0  0
 33 38  1  0  0  0  0
 33 71  1  0  0  0  0
 34 35  1  0  0  0  0
 34 72  1  0  0  0  0
 35 36  2  0  0  0  0
 35 73  1  0  0  0  0
 36 37  1  0  0  0  0
 36 74  1  0  0  0  0
 37 38  2  0  0  0  0
 37 75  1  0  0  0  0
M  END
$$$$
