G39
 OpenBabel04111919103D

 44 44  0  0  1  0  0  0  0  0999 V2000
   24.2387   -5.8581   12.6620 C   0  0  0  0  0  0  0  0  0  0  0  0
   22.9943   -5.7478   12.8118 O   0  0  0  0  0  0  0  0  0  0  0  0
   25.0830   -4.9582   12.2894 O   0  0  0  0  0  0  0  0  0  0  0  0
   24.9060   -7.1269   13.1322 C   0  0  0  0  0  0  0  0  0  0  0  0
   26.4011   -7.2231   13.1124 C   0  0  0  0  0  0  0  0  0  0  0  0
   26.8636   -8.0259   14.3142 C   0  0  1  0  0  0  0  0  0  0  0  0
   26.0972   -9.3375   14.4065 C   0  0  1  0  0  0  0  0  0  0  0  0
   26.7762  -10.2413   15.3451 N   0  0  0  0  0  0  0  0  0  0  0  0
   26.8968  -11.5664   14.9692 C   0  0  0  0  0  0  0  0  0  0  0  0
   26.5959  -11.9701   13.8552 O   0  0  0  0  0  0  0  0  0  0  0  0
   27.5920  -12.4226   15.9600 C   0  0  0  0  0  0  0  0  0  0  0  0
   24.6389   -9.0694   14.7157 C   0  0  1  0  0  0  0  0  0  0  0  0
   24.1437   -8.0795   13.7084 C   0  0  0  0  0  0  0  0  0  0  0  0
   23.9397  -10.3010   14.5878 O   0  0  0  0  0  0  0  0  0  0  0  0
   22.8969  -10.4934   15.5416 C   0  0  0  0  0  0  0  0  0  0  0  0
   21.8042   -9.4534   15.3530 C   0  0  0  0  0  0  0  0  0  0  0  0
   22.2749  -11.8691   15.3068 C   0  0  0  0  0  0  0  0  0  0  0  0
   23.3047  -12.9713   15.1999 C   0  0  0  0  0  0  0  0  0  0  0  0
   21.0999   -9.1041   16.6317 C   0  0  0  0  0  0  0  0  0  0  0  0
   28.2890   -8.4385   14.1717 N   0  3  0  0  0  0  0  0  0  0  0  0
   26.8966   -6.2521   13.1044 H   0  0  0  0  0  0  0  0  0  0  0  0
   26.6867   -7.7308   12.1836 H   0  0  0  0  0  0  0  0  0  0  0  0
   26.7941   -7.4399   15.2376 H   0  0  0  0  0  0  0  0  0  0  0  0
   26.1397   -9.8057   13.4113 H   0  0  0  0  0  0  0  0  0  0  0  0
   26.9045   -9.9756   16.3166 H   0  0  0  0  0  0  0  0  0  0  0  0
   27.7077  -13.4169   15.5151 H   0  0  0  0  0  0  0  0  0  0  0  0
   26.9916  -12.4907   16.8675 H   0  0  0  0  0  0  0  0  0  0  0  0
   28.5851  -12.0132   16.1742 H   0  0  0  0  0  0  0  0  0  0  0  0
   24.5637   -8.6550   15.7336 H   0  0  0  0  0  0  0  0  0  0  0  0
   23.0869   -8.0497   13.4556 H   0  0  0  0  0  0  0  0  0  0  0  0
   23.3353  -10.4529   16.5471 H   0  0  0  0  0  0  0  0  0  0  0  0
   21.0911   -9.7905   14.5938 H   0  0  0  0  0  0  0  0  0  0  0  0
   22.1972   -8.5186   14.9906 H   0  0  0  0  0  0  0  0  0  0  0  0
   21.6971  -11.8609   14.3745 H   0  0  0  0  0  0  0  0  0  0  0  0
   21.5774  -12.0971   16.1178 H   0  0  0  0  0  0  0  0  0  0  0  0
   22.8143  -13.9327   15.0233 H   0  0  0  0  0  0  0  0  0  0  0  0
   23.8864  -13.0360   16.1209 H   0  0  0  0  0  0  0  0  0  0  0  0
   23.9836  -12.7839   14.3640 H   0  0  0  0  0  0  0  0  0  0  0  0
   20.3470   -8.3440   16.4260 H   0  0  0  0  0  0  0  0  0  0  0  0
   21.8150   -8.6987   17.3515 H   0  0  0  0  0  0  0  0  0  0  0  0
   20.6223   -9.9868   17.0488 H   0  0  0  0  0  0  0  0  0  0  0  0
   28.5467   -8.9998   14.9886 H   0  0  0  0  0  0  0  0  0  0  0  0
   28.3633   -9.0767   13.3591 H   0  0  0  0  0  0  0  0  0  0  0  0
   28.9148   -7.6349   14.0535 H   0  0  0  0  0  0  0  0  0  0  0  0
  1  2  2  0  0  0  0
  1  3  1  0  0  0  0
  1  4  1  0  0  0  0
  4  5  1  0  0  0  0
  4 13  2  0  0  0  0
  5  6  1  0  0  0  0
  5 21  1  0  0  0  0
  5 22  1  0  0  0  0
  6  7  1  0  0  0  0
  6 20  1  0  0  0  0
  6 23  1  1  0  0  0
  7  8  1  0  0  0  0
  7 12  1  0  0  0  0
  7 24  1  6  0  0  0
  8  9  1  0  0  0  0
  8 25  1  0  0  0  0
  9 10  2  0  0  0  0
  9 11  1  0  0  0  0
 11 26  1  0  0  0  0
 11 27  1  0  0  0  0
 11 28  1  0  0  0  0
 12 13  1  0  0  0  0
 12 14  1  0  0  0  0
 12 29  1  1  0  0  0
 13 30  1  0  0  0  0
 14 15  1  0  0  0  0
 15 16  1  0  0  0  0
 15 17  1  0  0  0  0
 15 31  1  0  0  0  0
 16 19  1  0  0  0  0
 16 32  1  0  0  0  0
 16 33  1  0  0  0  0
 17 18  1  0  0  0  0
 17 34  1  0  0  0  0
 17 35  1  0  0  0  0
 18 36  1  0  0  0  0
 18 37  1  0  0  0  0
 18 38  1  0  0  0  0
 19 39  1  0  0  0  0
 19 40  1  0  0  0  0
 19 41  1  0  0  0  0
 20 42  1  0  0  0  0
 20 43  1  0  0  0  0
 20 44  1  0  0  0  0
M  CHG  1  20   1
M  END
$$$$
