G39
 OpenBabel04111918033D

 46 46  0  0  1  0  0  0  0  0999 V2000
   28.9050   -5.5249   11.7545 C   0  0  0  0  0  0  0  0  0  0  0  0
   29.8620   -4.7256   11.5266 O   0  0  0  0  0  0  0  0  0  0  0  0
   27.6708   -5.3242   11.7250 O   0  0  0  0  0  0  0  0  0  0  0  0
   29.3501   -6.9559   12.1615 C   0  0  1  0  0  0  0  0  0  0  0  0
   30.7901   -6.9315   12.6834 C   0  0  0  0  0  0  0  0  0  0  0  0
   31.0521   -7.8245   13.8652 C   0  0  1  0  0  0  0  0  0  0  0  0
   30.1770   -9.0770   13.9230 C   0  0  1  0  0  0  0  0  0  0  0  0
   30.6234   -9.9172   15.0598 N   0  0  0  0  0  0  0  0  0  0  0  0
   31.0206  -11.2262   14.8569 C   0  0  0  0  0  0  0  0  0  0  0  0
   31.2301  -11.6715   13.7336 O   0  0  0  0  0  0  0  0  0  0  0  0
   31.3154  -12.0031   16.1050 C   0  0  0  0  0  0  0  0  0  0  0  0
   28.7160   -8.6514   14.0687 C   0  0  1  0  0  0  0  0  0  0  0  0
   28.2888   -7.5550   13.0933 C   0  0  0  0  0  0  0  0  0  0  0  0
   27.8673   -9.7928   13.8747 O   0  0  0  0  0  0  0  0  0  0  0  0
   27.1642  -10.2275   15.0384 C   0  0  0  0  0  0  0  0  0  0  0  0
   26.1597   -9.1829   15.5706 C   0  0  0  0  0  0  0  0  0  0  0  0
   26.4686  -11.5615   14.7192 C   0  0  0  0  0  0  0  0  0  0  0  0
   27.4461  -12.7268   14.6176 C   0  0  0  0  0  0  0  0  0  0  0  0
   25.0736   -8.7252   14.6104 C   0  0  0  0  0  0  0  0  0  0  0  0
   32.4836   -8.2511   13.8310 N   0  3  0  0  0  0  0  0  0  0  0  0
   29.3511   -7.5511   11.2359 H   0  0  0  0  0  0  0  0  0  0  0  0
   31.1098   -5.9280   12.9887 H   0  0  0  0  0  0  0  0  0  0  0  0
   31.4509   -7.1975   11.8458 H   0  0  0  0  0  0  0  0  0  0  0  0
   30.9435   -7.2566   14.7998 H   0  0  0  0  0  0  0  0  0  0  0  0
   30.2913   -9.6524   12.9941 H   0  0  0  0  0  0  0  0  0  0  0  0
   30.3780   -9.6306   16.0014 H   0  0  0  0  0  0  0  0  0  0  0  0
   31.6451  -13.0071   15.8228 H   0  0  0  0  0  0  0  0  0  0  0  0
   30.4254  -12.0926   16.7319 H   0  0  0  0  0  0  0  0  0  0  0  0
   32.1200  -11.5178   16.6607 H   0  0  0  0  0  0  0  0  0  0  0  0
   28.6007   -8.2587   15.0845 H   0  0  0  0  0  0  0  0  0  0  0  0
   27.4640   -7.9182   12.4670 H   0  0  0  0  0  0  0  0  0  0  0  0
   27.8531   -6.7555   13.7088 H   0  0  0  0  0  0  0  0  0  0  0  0
   27.8981  -10.4117   15.8304 H   0  0  0  0  0  0  0  0  0  0  0  0
   26.6984   -8.2859   15.8972 H   0  0  0  0  0  0  0  0  0  0  0  0
   25.6831   -9.5878   16.4701 H   0  0  0  0  0  0  0  0  0  0  0  0
   25.9209  -11.4914   13.7719 H   0  0  0  0  0  0  0  0  0  0  0  0
   25.7459  -11.7986   15.5102 H   0  0  0  0  0  0  0  0  0  0  0  0
   26.8972  -13.6570   14.4347 H   0  0  0  0  0  0  0  0  0  0  0  0
   28.0058  -12.8514   15.5507 H   0  0  0  0  0  0  0  0  0  0  0  0
   28.1601  -12.5885   13.8005 H   0  0  0  0  0  0  0  0  0  0  0  0
   24.4400   -7.9851   15.1138 H   0  0  0  0  0  0  0  0  0  0  0  0
   24.4298   -9.5536   14.3005 H   0  0  0  0  0  0  0  0  0  0  0  0
   25.4866   -8.2482   13.7189 H   0  0  0  0  0  0  0  0  0  0  0  0
   32.6799   -8.8796   14.6148 H   0  0  0  0  0  0  0  0  0  0  0  0
   32.6690   -8.7883   12.9690 H   0  0  0  0  0  0  0  0  0  0  0  0
   33.1189   -7.4446   13.8511 H   0  0  0  0  0  0  0  0  0  0  0  0
  1  2  2  0  0  0  0
  1  3  1  0  0  0  0
  1  4  1  0  0  0  0
  4  5  1  0  0  0  0
  4 13  1  0  0  0  0
  4 21  1  6  0  0  0
  5  6  1  0  0  0  0
  5 22  1  0  0  0  0
  5 23  1  0  0  0  0
  6  7  1  0  0  0  0
  6 20  1  0  0  0  0
  6 24  1  1  0  0  0
  7  8  1  0  0  0  0
  7 12  1  0  0  0  0
  7 25  1  6  0  0  0
  8  9  1  0  0  0  0
  8 26  1  0  0  0  0
  9 10  2  0  0  0  0
  9 11  1  0  0  0  0
 11 27  1  0  0  0  0
 11 28  1  0  0  0  0
 11 29  1  0  0  0  0
 12 13  1  0  0  0  0
 12 14  1  0  0  0  0
 12 30  1  1  0  0  0
 13 31  1  0  0  0  0
 13 32  1  0  0  0  0
 14 15  1  0  0  0  0
 15 16  1  0  0  0  0
 15 17  1  0  0  0  0
 15 33  1  0  0  0  0
 16 19  1  0  0  0  0
 16 34  1  0  0  0  0
 16 35  1  0  0  0  0
 17 18  1  0  0  0  0
 17 36  1  0  0  0  0
 17 37  1  0  0  0  0
 18 38  1  0  0  0  0
 18 39  1  0  0  0  0
 18 40  1  0  0  0  0
 19 41  1  0  0  0  0
 19 42  1  0  0  0  0
 19 43  1  0  0  0  0
 20 44  1  0  0  0  0
 20 45  1  0  0  0  0
 20 46  1  0  0  0  0
M  CHG  1  20   1
M  END
$$$$
