G39
 OpenBabel04111918043D

 46 46  0  0  1  0  0  0  0  0999 V2000
   27.0743   20.3890  -40.0990 C   0  0  0  0  0  0  0  0  0  0  0  0
   27.4350   19.2557  -39.6767 O   0  0  0  0  0  0  0  0  0  0  0  0
   27.7206   21.4692  -40.1966 O   0  0  0  0  0  0  0  0  0  0  0  0
   25.5898   20.4980  -40.4718 C   0  0  2  0  0  0  0  0  0  0  0  0
   24.8420   19.1984  -40.7524 C   0  0  0  0  0  0  0  0  0  0  0  0
   23.3641   19.5458  -40.6973 C   0  0  1  0  0  0  0  0  0  0  0  0
   22.9773   20.5140  -41.8347 C   0  0  1  0  0  0  0  0  0  0  0  0
   21.5150   20.8149  -41.7714 N   0  0  0  0  0  0  0  0  0  0  0  0
   20.6715   20.4603  -42.8010 C   0  0  0  0  0  0  0  0  0  0  0  0
   21.0450   19.6798  -43.6538 O   0  0  0  0  0  0  0  0  0  0  0  0
   19.2121   20.8359  -42.6749 C   0  0  0  0  0  0  0  0  0  0  0  0
   23.8190   21.8059  -41.6958 C   0  0  1  0  0  0  0  0  0  0  0  0
   25.3177   21.5520  -41.5410 C   0  0  0  0  0  0  0  0  0  0  0  0
   23.6444   22.6577  -42.8266 O   0  0  0  0  0  0  0  0  0  0  0  0
   22.8245   23.7961  -42.5760 C   0  0  0  0  0  0  0  0  0  0  0  0
   22.4729   24.4658  -43.9078 C   0  0  0  0  0  0  0  0  0  0  0  0
   23.3957   24.7745  -41.5257 C   0  0  0  0  0  0  0  0  0  0  0  0
   24.7141   25.4604  -41.8357 C   0  0  0  0  0  0  0  0  0  0  0  0
   21.8368   23.5111  -44.9118 C   0  0  0  0  0  0  0  0  0  0  0  0
   22.5315   18.3196  -40.7145 N   0  3  0  0  0  0  0  0  0  0  0  0
   25.1236   20.9041  -39.5637 H   0  0  0  0  0  0  0  0  0  0  0  0
   25.0837   18.4539  -39.9866 H   0  0  0  0  0  0  0  0  0  0  0  0
   25.1114   18.7750  -41.7308 H   0  0  0  0  0  0  0  0  0  0  0  0
   23.1260   20.0101  -39.7339 H   0  0  0  0  0  0  0  0  0  0  0  0
   23.2084   20.0396  -42.7956 H   0  0  0  0  0  0  0  0  0  0  0  0
   21.2039   21.4544  -41.0538 H   0  0  0  0  0  0  0  0  0  0  0  0
   18.6596   20.3971  -43.5175 H   0  0  0  0  0  0  0  0  0  0  0  0
   19.1252   21.9153  -42.7217 H   0  0  0  0  0  0  0  0  0  0  0  0
   18.7841   20.4468  -41.7498 H   0  0  0  0  0  0  0  0  0  0  0  0
   23.4734   22.2951  -40.7811 H   0  0  0  0  0  0  0  0  0  0  0  0
   25.7711   21.2764  -42.5011 H   0  0  0  0  0  0  0  0  0  0  0  0
   25.7864   22.5012  -41.2419 H   0  0  0  0  0  0  0  0  0  0  0  0
   21.8800   23.4375  -42.1572 H   0  0  0  0  0  0  0  0  0  0  0  0
   23.3682   24.8886  -44.3732 H   0  0  0  0  0  0  0  0  0  0  0  0
   21.7606   25.2736  -43.7114 H   0  0  0  0  0  0  0  0  0  0  0  0
   23.5326   24.2450  -40.5771 H   0  0  0  0  0  0  0  0  0  0  0  0
   22.6439   25.5483  -41.3420 H   0  0  0  0  0  0  0  0  0  0  0  0
   24.9946   26.1209  -41.0021 H   0  0  0  0  0  0  0  0  0  0  0  0
   24.6328   26.0781  -42.7319 H   0  0  0  0  0  0  0  0  0  0  0  0
   25.5201   24.7366  -41.9711 H   0  0  0  0  0  0  0  0  0  0  0  0
   21.5800   24.0522  -45.8298 H   0  0  0  0  0  0  0  0  0  0  0  0
   20.9181   23.0748  -44.5070 H   0  0  0  0  0  0  0  0  0  0  0  0
   22.5232   22.7011  -45.1762 H   0  0  0  0  0  0  0  0  0  0  0  0
   21.5355   18.5720  -40.6917 H   0  0  0  0  0  0  0  0  0  0  0  0
   22.6934   17.7701  -41.5669 H   0  0  0  0  0  0  0  0  0  0  0  0
   22.7446   17.7348  -39.8970 H   0  0  0  0  0  0  0  0  0  0  0  0
  1  2  2  0  0  0  0
  1  3  1  0  0  0  0
  1  4  1  0  0  0  0
  4  5  1  0  0  0  0
  4 13  1  0  0  0  0
  4 21  1  1  0  0  0
  5  6  1  0  0  0  0
  5 22  1  0  0  0  0
  5 23  1  0  0  0  0
  6  7  1  0  0  0  0
  6 20  1  0  0  0  0
  6 24  1  1  0  0  0
  7  8  1  0  0  0  0
  7 12  1  0  0  0  0
  7 25  1  6  0  0  0
  8  9  1  0  0  0  0
  8 26  1  0  0  0  0
  9 10  2  0  0  0  0
  9 11  1  0  0  0  0
 11 27  1  0  0  0  0
 11 28  1  0  0  0  0
 11 29  1  0  0  0  0
 12 13  1  0  0  0  0
 12 14  1  0  0  0  0
 12 30  1  1  0  0  0
 13 31  1  0  0  0  0
 13 32  1  0  0  0  0
 14 15  1  0  0  0  0
 15 16  1  0  0  0  0
 15 17  1  0  0  0  0
 15 33  1  0  0  0  0
 16 19  1  0  0  0  0
 16 34  1  0  0  0  0
 16 35  1  0  0  0  0
 17 18  1  0  0  0  0
 17 36  1  0  0  0  0
 17 37  1  0  0  0  0
 18 38  1  0  0  0  0
 18 39  1  0  0  0  0
 18 40  1  0  0  0  0
 19 41  1  0  0  0  0
 19 42  1  0  0  0  0
 19 43  1  0  0  0  0
 20 44  1  0  0  0  0
 20 45  1  0  0  0  0
 20 46  1  0  0  0  0
M  CHG  1  20   1
M  END
$$$$
