G3P
 OpenBabel04111917443D

 17 16  0  0  1  0  0  0  0  0999 V2000
   44.8371   26.3378  179.2333 O   0  0  0  0  0  0  0  0  0  0  0  0
   44.4869   24.9670  178.9621 C   0  0  0  0  0  0  0  0  0  0  0  0
   42.9711   24.7568  178.8667 C   0  0  1  0  0  0  0  0  0  0  0  0
   42.4331   25.4692  177.7431 O   0  0  0  0  0  0  0  0  0  0  0  0
   42.6349   23.2686  178.7478 C   0  0  0  0  0  0  0  0  0  0  0  0
   43.3023   22.6838  177.6476 O   0  0  0  0  0  0  0  0  0  0  0  0
   42.6408   20.3844  178.3473 O   0  0  0  0  0  0  0  0  0  0  0  0
   43.8104   20.8062  176.1131 O   0  0  0  0  0  0  0  0  0  0  0  0
   41.3929   21.5871  176.4624 O   0  0  0  0  0  0  0  0  0  0  0  0
   42.7362   21.2500  177.0967 P   0  0  0  0  0  0  0  0  0  0  0  0
   44.5864   26.8423  178.4429 H   0  0  0  0  0  0  0  0  0  0  0  0
   44.8842   24.3755  179.7916 H   0  0  0  0  0  0  0  0  0  0  0  0
   44.9698   24.6721  178.0267 H   0  0  0  0  0  0  0  0  0  0  0  0
   42.4840   25.1678  179.7594 H   0  0  0  0  0  0  0  0  0  0  0  0
   42.6449   26.4139  177.8565 H   0  0  0  0  0  0  0  0  0  0  0  0
   41.5600   23.1548  178.6136 H   0  0  0  0  0  0  0  0  0  0  0  0
   42.9715   22.7550  179.6524 H   0  0  0  0  0  0  0  0  0  0  0  0
  1  2  1  0  0  0  0
  1 11  1  0  0  0  0
  2  3  1  0  0  0  0
  2 12  1  0  0  0  0
  2 13  1  0  0  0  0
  3  4  1  0  0  0  0
  3  5  1  0  0  0  0
  3 14  1  1  0  0  0
  4 15  1  0  0  0  0
  5  6  1  0  0  0  0
  5 16  1  0  0  0  0
  5 17  1  0  0  0  0
  6 10  1  0  0  0  0
  7 10  2  0  0  0  0
  8 10  1  0  0  0  0
  9 10  1  0  0  0  0
M  END
$$$$
