G52
 OpenBabel04111919143D

 82 86  0  0  1  0  0  0  0  0999 V2000
  -17.2070   24.9342  -20.2692 C   0  0  0  0  0  0  0  0  0  0  0  0
  -16.4901   24.0576  -21.0891 C   0  0  0  0  0  0  0  0  0  0  0  0
  -15.4085   23.3176  -20.6043 C   0  0  0  0  0  0  0  0  0  0  0  0
  -15.0224   23.4929  -19.2820 C   0  0  0  0  0  0  0  0  0  0  0  0
  -15.6626   24.4413  -18.4960 C   0  0  0  0  0  0  0  0  0  0  0  0
  -16.7464   25.1795  -18.9807 C   0  0  0  0  0  0  0  0  0  0  0  0
  -13.6378   22.5967  -18.5878 S   0  0  0  0  0  0  0  0  0  0  0  0
  -12.8162   22.1727  -19.6852 O   0  0  0  0  0  0  0  0  0  0  0  0
  -13.0880   23.3612  -17.4853 O   0  0  0  0  0  0  0  0  0  0  0  0
  -14.3171   21.2081  -17.9207 N   0  0  0  0  0  0  0  0  0  0  0  0
  -15.3407   21.4430  -16.9000 C   0  0  0  0  0  0  0  0  0  0  0  0
  -15.3323   20.3883  -15.8057 C   0  0  0  0  0  0  0  0  0  0  0  0
  -14.0012   20.4076  -15.0673 C   0  0  0  0  0  0  0  0  0  0  0  0
  -16.4280   20.7584  -14.8171 C   0  0  0  0  0  0  0  0  0  0  0  0
  -14.5173   20.0564  -18.7997 C   0  0  0  0  0  0  0  0  0  0  0  0
  -13.6072   18.8874  -18.4083 C   0  0  1  0  0  0  0  0  0  0  0  0
  -14.0697   17.7097  -19.0907 O   0  0  0  0  0  0  0  0  0  0  0  0
  -12.1106   19.1083  -18.6865 C   0  0  1  0  0  0  0  0  0  0  0  0
  -11.3415   18.0276  -18.0627 N   0  0  0  0  0  0  0  0  0  0  0  0
  -10.6198   18.1565  -16.9154 C   0  0  0  0  0  0  0  0  0  0  0  0
  -10.5438   19.1231  -16.2236 O   0  0  0  0  0  0  0  0  0  0  0  0
   -9.9602   16.9855  -16.7087 O   0  0  0  0  0  0  0  0  0  0  0  0
   -8.9745   16.9771  -15.6480 C   0  0  1  0  0  0  0  0  0  0  0  0
   -9.2495   15.7468  -14.8019 C   0  0  0  0  0  0  0  0  0  0  0  0
   -8.5877   14.6423  -15.4439 O   0  0  0  0  0  0  0  0  0  0  0  0
   -7.6557   15.1627  -16.3987 C   0  0  1  0  0  0  0  0  0  0  0  0
   -8.0715   14.8801  -17.7335 O   0  0  0  0  0  0  0  0  0  0  0  0
   -7.8339   16.0278  -18.5562 C   0  0  1  0  0  0  0  0  0  0  0  0
   -7.3590   17.1633  -17.6614 C   0  0  1  0  0  0  0  0  0  0  0  0
   -7.6011   16.6739  -16.2448 C   0  0  1  0  0  0  0  0  0  0  0  0
  -11.7672   19.1954  -20.1833 C   0  0  0  0  0  0  0  0  0  0  0  0
   -9.4270   18.4984  -20.7784 C   0  0  0  0  0  0  0  0  0  0  0  0
   -8.0548   18.7320  -20.8023 C   0  0  0  0  0  0  0  0  0  0  0  0
   -7.5612   19.9955  -20.4852 C   0  0  0  0  0  0  0  0  0  0  0  0
   -8.4335   21.0123  -20.1151 C   0  0  0  0  0  0  0  0  0  0  0  0
   -9.7984   20.7627  -20.0442 C   0  0  0  0  0  0  0  0  0  0  0  0
  -10.3047   19.5008  -20.3661 C   0  0  0  0  0  0  0  0  0  0  0  0
  -18.2794   25.5537  -20.8488 O   0  0  0  0  0  0  0  0  0  0  0  0
  -18.9660   26.4311  -19.9647 C   0  0  0  0  0  0  0  0  0  0  0  0
   -6.7708   15.7502  -19.4868 O   0  0  0  0  0  0  0  0  0  0  0  0
   -5.5661   16.0040  -18.7655 C   0  0  0  0  0  0  0  0  0  0  0  0
   -5.8829   17.2860  -18.0268 C   0  0  0  0  0  0  0  0  0  0  0  0
  -16.7517   24.0148  -22.1390 H   0  0  0  0  0  0  0  0  0  0  0  0
  -14.9006   22.6089  -21.2506 H   0  0  0  0  0  0  0  0  0  0  0  0
  -15.3384   24.5972  -17.4753 H   0  0  0  0  0  0  0  0  0  0  0  0
  -17.1636   25.9666  -18.3613 H   0  0  0  0  0  0  0  0  0  0  0  0
  -16.3183   21.4731  -17.3886 H   0  0  0  0  0  0  0  0  0  0  0  0
  -15.1515   22.4191  -16.4382 H   0  0  0  0  0  0  0  0  0  0  0  0
  -15.5147   19.3884  -16.2239 H   0  0  0  0  0  0  0  0  0  0  0  0
  -13.9921   19.6461  -14.2820 H   0  0  0  0  0  0  0  0  0  0  0  0
  -13.8513   21.3909  -14.6068 H   0  0  0  0  0  0  0  0  0  0  0  0
  -13.1737   20.2177  -15.7535 H   0  0  0  0  0  0  0  0  0  0  0  0
  -17.4048   20.7519  -15.3096 H   0  0  0  0  0  0  0  0  0  0  0  0
  -16.2456   21.7687  -14.4245 H   0  0  0  0  0  0  0  0  0  0  0  0
  -16.4448   20.0589  -13.9775 H   0  0  0  0  0  0  0  0  0  0  0  0
  -14.3180   20.3331  -19.8343 H   0  0  0  0  0  0  0  0  0  0  0  0
  -15.5577   19.7250  -18.7455 H   0  0  0  0  0  0  0  0  0  0  0  0
  -13.7115   18.7081  -17.3358 H   0  0  0  0  0  0  0  0  0  0  0  0
  -14.0261   17.8785  -20.0475 H   0  0  0  0  0  0  0  0  0  0  0  0
  -11.8186   20.0445  -18.2190 H   0  0  0  0  0  0  0  0  0  0  0  0
  -11.3619   17.1184  -18.4878 H   0  0  0  0  0  0  0  0  0  0  0  0
   -9.0018   17.9029  -15.0573 H   0  0  0  0  0  0  0  0  0  0  0  0
  -10.3197   15.5250  -14.7308 H   0  0  0  0  0  0  0  0  0  0  0  0
   -8.8340   15.8528  -13.7937 H   0  0  0  0  0  0  0  0  0  0  0  0
   -6.6727   14.7094  -16.2147 H   0  0  0  0  0  0  0  0  0  0  0  0
   -8.7466   16.2785  -19.1061 H   0  0  0  0  0  0  0  0  0  0  0  0
   -7.8985   18.0963  -17.8455 H   0  0  0  0  0  0  0  0  0  0  0  0
   -6.8048   16.9894  -15.5520 H   0  0  0  0  0  0  0  0  0  0  0  0
  -12.3543   19.9861  -20.6552 H   0  0  0  0  0  0  0  0  0  0  0  0
  -12.0082   18.2541  -20.6944 H   0  0  0  0  0  0  0  0  0  0  0  0
   -9.8185   17.5286  -21.0762 H   0  0  0  0  0  0  0  0  0  0  0  0
   -7.3763   17.9257  -21.0595 H   0  0  0  0  0  0  0  0  0  0  0  0
   -6.4988   20.2003  -20.5332 H   0  0  0  0  0  0  0  0  0  0  0  0
   -8.0517   21.9995  -19.8746 H   0  0  0  0  0  0  0  0  0  0  0  0
  -10.4683   21.5602  -19.7367 H   0  0  0  0  0  0  0  0  0  0  0  0
  -19.7763   26.9199  -20.5066 H   0  0  0  0  0  0  0  0  0  0  0  0
  -18.2819   27.2020  -19.5956 H   0  0  0  0  0  0  0  0  0  0  0  0
  -19.3843   25.8618  -19.1282 H   0  0  0  0  0  0  0  0  0  0  0  0
   -4.7094   16.0913  -19.4404 H   0  0  0  0  0  0  0  0  0  0  0  0
   -5.3732   15.1718  -18.0716 H   0  0  0  0  0  0  0  0  0  0  0  0
   -5.2471   17.4109  -17.1528 H   0  0  0  0  0  0  0  0  0  0  0  0
   -5.7285   18.1398  -18.7020 H   0  0  0  0  0  0  0  0  0  0  0  0
  1  2  2  0  0  0  0
  1  6  1  0  0  0  0
  1 38  1  0  0  0  0
  2  3  1  0  0  0  0
  2 43  1  0  0  0  0
  3  4  2  0  0  0  0
  3 44  1  0  0  0  0
  4  5  1  0  0  0  0
  4  7  1  0  0  0  0
  5  6  2  0  0  0  0
  5 45  1  0  0  0  0
  6 46  1  0  0  0  0
  7  8  2  0  0  0  0
  7  9  2  0  0  0  0
  7 10  1  0  0  0  0
 10 11  1  0  0  0  0
 10 15  1  0  0  0  0
 11 12  1  0  0  0  0
 11 47  1  0  0  0  0
 11 48  1  0  0  0  0
 12 13  1  0  0  0  0
 12 14  1  0  0  0  0
 12 49  1  0  0  0  0
 13 50  1  0  0  0  0
 13 51  1  0  0  0  0
 13 52  1  0  0  0  0
 14 53  1  0  0  0  0
 14 54  1  0  0  0  0
 14 55  1  0  0  0  0
 15 16  1  0  0  0  0
 15 56  1  0  0  0  0
 15 57  1  0  0  0  0
 16 17  1  0  0  0  0
 16 18  1  0  0  0  0
 16 58  1  1  0  0  0
 17 59  1  0  0  0  0
 18 19  1  0  0  0  0
 18 31  1  0  0  0  0
 18 60  1  1  0  0  0
 19 20  1  0  0  0  0
 19 61  1  0  0  0  0
 20 21  2  0  0  0  0
 20 22  1  0  0  0  0
 22 23  1  0  0  0  0
 23 24  1  0  0  0  0
 23 30  1  0  0  0  0
 23 62  1  1  0  0  0
 24 25  1  0  0  0  0
 24 63  1  0  0  0  0
 24 64  1  0  0  0  0
 25 26  1  0  0  0  0
 26 27  1  0  0  0  0
 26 30  1  0  0  0  0
 26 65  1  1  0  0  0
 27 28  1  0  0  0  0
 28 29  1  0  0  0  0
 28 40  1  0  0  0  0
 28 66  1  6  0  0  0
 29 30  1  0  0  0  0
 29 42  1  0  0  0  0
 29 67  1  6  0  0  0
 30 68  1  1  0  0  0
 31 37  1  0  0  0  0
 31 69  1  0  0  0  0
 31 70  1  0  0  0  0
 32 33  2  0  0  0  0
 32 37  1  0  0  0  0
 32 71  1  0  0  0  0
 33 34  1  0  0  0  0
 33 72  1  0  0  0  0
 34 35  2  0  0  0  0
 34 73  1  0  0  0  0
 35 36  1  0  0  0  0
 35 74  1  0  0  0  0
 36 37  2  0  0  0  0
 36 75  1  0  0  0  0
 38 39  1  0  0  0  0
 39 76  1  0  0  0  0
 39 77  1  0  0  0  0
 39 78  1  0  0  0  0
 40 41  1  0  0  0  0
 41 42  1  0  0  0  0
 41 79  1  0  0  0  0
 41 80  1  0  0  0  0
 42 81  1  0  0  0  0
 42 82  1  0  0  0  0
M  END
$$$$
