G52
 OpenBabel04111919143D

 82 86  0  0  1  0  0  0  0  0999 V2000
   21.0446   27.6189   14.9383 C   0  0  0  0  0  0  0  0  0  0  0  0
   19.6926   27.5779   14.5715 C   0  0  0  0  0  0  0  0  0  0  0  0
   18.9180   26.4486   14.8398 C   0  0  0  0  0  0  0  0  0  0  0  0
   19.5046   25.3627   15.4942 C   0  0  0  0  0  0  0  0  0  0  0  0
   20.8589   25.3825   15.8274 C   0  0  0  0  0  0  0  0  0  0  0  0
   21.6220   26.5115   15.5590 C   0  0  0  0  0  0  0  0  0  0  0  0
   18.5764   23.8864   15.8449 S   0  0  0  0  0  0  0  0  0  0  0  0
   17.5277   23.7957   14.8603 O   0  0  0  0  0  0  0  0  0  0  0  0
   19.5292   22.8125   16.0330 O   0  0  0  0  0  0  0  0  0  0  0  0
   17.8690   24.2257   17.3613 N   0  0  0  0  0  0  0  0  0  0  0  0
   18.8069   24.5602   18.4657 C   0  0  0  0  0  0  0  0  0  0  0  0
   18.4644   23.8382   19.7738 C   0  0  0  0  0  0  0  0  0  0  0  0
   18.6498   22.3249   19.6494 C   0  0  0  0  0  0  0  0  0  0  0  0
   19.3590   24.3803   20.8905 C   0  0  0  0  0  0  0  0  0  0  0  0
   16.5955   24.9900   17.3642 C   0  0  0  0  0  0  0  0  0  0  0  0
   15.4342   24.1157   17.8794 C   0  0  1  0  0  0  0  0  0  0  0  0
   14.2938   24.9393   18.1786 O   0  0  0  0  0  0  0  0  0  0  0  0
   15.0505   22.9482   16.9391 C   0  0  1  0  0  0  0  0  0  0  0  0
   14.1805   22.0235   17.6678 N   0  0  0  0  0  0  0  0  0  0  0  0
   14.5581   20.7608   17.9906 C   0  0  0  0  0  0  0  0  0  0  0  0
   15.6519   20.2643   17.7756 O   0  0  0  0  0  0  0  0  0  0  0  0
   13.5121   20.1264   18.5634 O   0  0  0  0  0  0  0  0  0  0  0  0
   13.6815   18.7223   18.8216 C   0  0  1  0  0  0  0  0  0  0  0  0
   13.2502   18.4381   20.2486 C   0  0  0  0  0  0  0  0  0  0  0  0
   11.8358   18.2024   20.2216 O   0  0  0  0  0  0  0  0  0  0  0  0
   11.4435   17.9755   18.8696 C   0  0  1  0  0  0  0  0  0  0  0  0
   10.6549   19.0520   18.3720 O   0  0  0  0  0  0  0  0  0  0  0  0
   11.0859   19.3723   17.0458 C   0  0  1  0  0  0  0  0  0  0  0  0
   12.2563   18.4649   16.6855 C   0  0  1  0  0  0  0  0  0  0  0  0
   12.6902   17.8928   18.0155 C   0  0  1  0  0  0  0  0  0  0  0  0
   14.3596   23.4111   15.6383 C   0  0  0  0  0  0  0  0  0  0  0  0
   12.7289   21.8276   14.5420 C   0  0  0  0  0  0  0  0  0  0  0  0
   12.4436   20.7394   13.7173 C   0  0  0  0  0  0  0  0  0  0  0  0
   13.4735   20.0856   13.0421 C   0  0  0  0  0  0  0  0  0  0  0  0
   14.7872   20.5220   13.1849 C   0  0  0  0  0  0  0  0  0  0  0  0
   15.0710   21.6078   14.0097 C   0  0  0  0  0  0  0  0  0  0  0  0
   14.0484   22.2674   14.7002 C   0  0  0  0  0  0  0  0  0  0  0  0
   21.7057   28.7805   14.6423 O   0  0  0  0  0  0  0  0  0  0  0  0
   23.0861   28.8127   14.9971 C   0  0  0  0  0  0  0  0  0  0  0  0
   10.0428   19.0900   16.1097 O   0  0  0  0  0  0  0  0  0  0  0  0
   10.1594   17.7034   15.7959 C   0  0  0  0  0  0  0  0  0  0  0  0
   11.6488   17.4544   15.7185 C   0  0  0  0  0  0  0  0  0  0  0  0
   19.2467   28.4310   14.0644 H   0  0  0  0  0  0  0  0  0  0  0  0
   17.8746   26.4176   14.5311 H   0  0  0  0  0  0  0  0  0  0  0  0
   21.3313   24.5225   16.3004 H   0  0  0  0  0  0  0  0  0  0  0  0
   22.6697   26.4853   15.8429 H   0  0  0  0  0  0  0  0  0  0  0  0
   18.8004   25.6464   18.6157 H   0  0  0  0  0  0  0  0  0  0  0  0
   19.8337   24.2937   18.1959 H   0  0  0  0  0  0  0  0  0  0  0  0
   17.4281   24.0426   20.0579 H   0  0  0  0  0  0  0  0  0  0  0  0
   18.4191   21.8285   20.5983 H   0  0  0  0  0  0  0  0  0  0  0  0
   19.6827   22.0735   19.3835 H   0  0  0  0  0  0  0  0  0  0  0  0
   17.9907   21.9023   18.8848 H   0  0  0  0  0  0  0  0  0  0  0  0
   19.2206   25.4607   21.0065 H   0  0  0  0  0  0  0  0  0  0  0  0
   20.4174   24.1967   20.6749 H   0  0  0  0  0  0  0  0  0  0  0  0
   19.1190   23.9070   21.8485 H   0  0  0  0  0  0  0  0  0  0  0  0
   16.3541   25.3905   16.3750 H   0  0  0  0  0  0  0  0  0  0  0  0
   16.6860   25.8798   17.9972 H   0  0  0  0  0  0  0  0  0  0  0  0
   15.7253   23.6795   18.8399 H   0  0  0  0  0  0  0  0  0  0  0  0
   14.0060   25.3880   17.3663 H   0  0  0  0  0  0  0  0  0  0  0  0
   15.9634   22.4000   16.6820 H   0  0  0  0  0  0  0  0  0  0  0  0
   13.2556   22.3148   17.9532 H   0  0  0  0  0  0  0  0  0  0  0  0
   14.7130   18.3946   18.6573 H   0  0  0  0  0  0  0  0  0  0  0  0
   13.4609   19.2628   20.9353 H   0  0  0  0  0  0  0  0  0  0  0  0
   13.7215   17.5246   20.6257 H   0  0  0  0  0  0  0  0  0  0  0  0
   10.8492   17.0570   18.8225 H   0  0  0  0  0  0  0  0  0  0  0  0
   11.3268   20.4383   17.0080 H   0  0  0  0  0  0  0  0  0  0  0  0
   13.0707   18.9931   16.1805 H   0  0  0  0  0  0  0  0  0  0  0  0
   13.0602   16.8630   17.9524 H   0  0  0  0  0  0  0  0  0  0  0  0
   14.9780   24.1369   15.1001 H   0  0  0  0  0  0  0  0  0  0  0  0
   13.4260   23.9370   15.8744 H   0  0  0  0  0  0  0  0  0  0  0  0
   11.9156   22.3167   15.0722 H   0  0  0  0  0  0  0  0  0  0  0  0
   11.4173   20.3948   13.6167 H   0  0  0  0  0  0  0  0  0  0  0  0
   13.2510   19.2314   12.4095 H   0  0  0  0  0  0  0  0  0  0  0  0
   15.5940   20.0149   12.6622 H   0  0  0  0  0  0  0  0  0  0  0  0
   16.1080   21.9237   14.1173 H   0  0  0  0  0  0  0  0  0  0  0  0
   23.4844   29.7989   14.7455 H   0  0  0  0  0  0  0  0  0  0  0  0
   23.6505   28.0658   14.4272 H   0  0  0  0  0  0  0  0  0  0  0  0
   23.2205   28.6675   16.0753 H   0  0  0  0  0  0  0  0  0  0  0  0
    9.6385   17.4817   14.8612 H   0  0  0  0  0  0  0  0  0  0  0  0
    9.6954   17.1222   16.6004 H   0  0  0  0  0  0  0  0  0  0  0  0
   11.9176   16.4136   15.9177 H   0  0  0  0  0  0  0  0  0  0  0  0
   11.9914   17.6898   14.7033 H   0  0  0  0  0  0  0  0  0  0  0  0
  1  2  2  0  0  0  0
  1  6  1  0  0  0  0
  1 38  1  0  0  0  0
  2  3  1  0  0  0  0
  2 43  1  0  0  0  0
  3  4  2  0  0  0  0
  3 44  1  0  0  0  0
  4  5  1  0  0  0  0
  4  7  1  0  0  0  0
  5  6  2  0  0  0  0
  5 45  1  0  0  0  0
  6 46  1  0  0  0  0
  7  8  2  0  0  0  0
  7  9  2  0  0  0  0
  7 10  1  0  0  0  0
 10 11  1  0  0  0  0
 10 15  1  0  0  0  0
 11 12  1  0  0  0  0
 11 47  1  0  0  0  0
 11 48  1  0  0  0  0
 12 13  1  0  0  0  0
 12 14  1  0  0  0  0
 12 49  1  0  0  0  0
 13 50  1  0  0  0  0
 13 51  1  0  0  0  0
 13 52  1  0  0  0  0
 14 53  1  0  0  0  0
 14 54  1  0  0  0  0
 14 55  1  0  0  0  0
 15 16  1  0  0  0  0
 15 56  1  0  0  0  0
 15 57  1  0  0  0  0
 16 17  1  0  0  0  0
 16 18  1  0  0  0  0
 16 58  1  1  0  0  0
 17 59  1  0  0  0  0
 18 19  1  0  0  0  0
 18 31  1  0  0  0  0
 18 60  1  6  0  0  0
 19 20  1  0  0  0  0
 19 61  1  0  0  0  0
 20 21  2  0  0  0  0
 20 22  1  0  0  0  0
 22 23  1  0  0  0  0
 23 24  1  0  0  0  0
 23 30  1  0  0  0  0
 23 62  1  6  0  0  0
 24 25  1  0  0  0  0
 24 63  1  0  0  0  0
 24 64  1  0  0  0  0
 25 26  1  0  0  0  0
 26 27  1  0  0  0  0
 26 30  1  0  0  0  0
 26 65  1  6  0  0  0
 27 28  1  0  0  0  0
 28 29  1  0  0  0  0
 28 40  1  0  0  0  0
 28 66  1  6  0  0  0
 29 30  1  0  0  0  0
 29 42  1  0  0  0  0
 29 67  1  6  0  0  0
 30 68  1  6  0  0  0
 31 37  1  0  0  0  0
 31 69  1  0  0  0  0
 31 70  1  0  0  0  0
 32 33  2  0  0  0  0
 32 37  1  0  0  0  0
 32 71  1  0  0  0  0
 33 34  1  0  0  0  0
 33 72  1  0  0  0  0
 34 35  2  0  0  0  0
 34 73  1  0  0  0  0
 35 36  1  0  0  0  0
 35 74  1  0  0  0  0
 36 37  2  0  0  0  0
 36 75  1  0  0  0  0
 38 39  1  0  0  0  0
 39 76  1  0  0  0  0
 39 77  1  0  0  0  0
 39 78  1  0  0  0  0
 40 41  1  0  0  0  0
 41 42  1  0  0  0  0
 41 79  1  0  0  0  0
 41 80  1  0  0  0  0
 42 81  1  0  0  0  0
 42 82  1  0  0  0  0
M  END
$$$$
