G79
 OpenBabel04111919483D

 87 91  0  0  1  0  0  0  0  0999 V2000
    8.1780   15.4699   14.9317 C   0  0  0  0  0  0  0  0  0  0  0  0
    9.5447   15.4786   14.6360 C   0  0  0  0  0  0  0  0  0  0  0  0
   10.3137   16.6250   14.8749 C   0  0  0  0  0  0  0  0  0  0  0  0
    9.7213   17.7320   15.4858 C   0  0  0  0  0  0  0  0  0  0  0  0
    8.3460   17.7499   15.7256 C   0  0  0  0  0  0  0  0  0  0  0  0
    7.5767   16.6240   15.4385 C   0  0  0  0  0  0  0  0  0  0  0  0
   10.6762   19.1775   15.8656 S   0  0  0  0  0  0  0  0  0  0  0  0
   11.7479   19.2471   14.8960 O   0  0  0  0  0  0  0  0  0  0  0  0
    9.7528   20.2715   16.0335 O   0  0  0  0  0  0  0  0  0  0  0  0
   11.3685   18.8547   17.4008 N   0  0  0  0  0  0  0  0  0  0  0  0
   10.4214   18.5665   18.5020 C   0  0  0  0  0  0  0  0  0  0  0  0
   10.7322   19.3450   19.7883 C   0  0  0  0  0  0  0  0  0  0  0  0
   10.7177   20.8607   19.5862 C   0  0  0  0  0  0  0  0  0  0  0  0
    9.6976   18.9741   20.8550 C   0  0  0  0  0  0  0  0  0  0  0  0
   12.6672   18.1397   17.4715 C   0  0  0  0  0  0  0  0  0  0  0  0
   13.7928   19.0667   17.9789 C   0  0  1  0  0  0  0  0  0  0  0  0
   14.9472   18.2882   18.3403 O   0  0  0  0  0  0  0  0  0  0  0  0
   14.1787   20.1833   16.9911 C   0  0  1  0  0  0  0  0  0  0  0  0
   15.0309   21.1528   17.6848 N   0  0  0  0  0  0  0  0  0  0  0  0
   14.6691   22.4571   17.7568 C   0  0  0  0  0  0  0  0  0  0  0  0
   13.5803   22.9009   17.4405 O   0  0  0  0  0  0  0  0  0  0  0  0
   15.7258   23.1977   18.1863 O   0  0  0  0  0  0  0  0  0  0  0  0
   15.5038   24.6179   18.1545 C   0  0  2  0  0  0  0  0  0  0  0  0
   16.4409   24.9063   20.4689 C   0  0  0  0  0  0  0  0  0  0  0  0
   17.6012   25.7314   19.9336 C   0  0  0  0  0  0  0  0  0  0  0  0
   17.9188   25.4074   18.4847 C   0  0  1  0  0  0  0  0  0  0  0  0
   18.5722   24.1365   18.3599 O   0  0  0  0  0  0  0  0  0  0  0  0
   18.3158   23.6358   17.0345 C   0  0  1  0  0  0  0  0  0  0  0  0
   17.3176   24.5819   16.3775 C   0  0  1  0  0  0  0  0  0  0  0  0
   16.7197   25.3420   17.5500 C   0  0  1  0  0  0  0  0  0  0  0  0
   14.8989   19.6759   15.7256 C   0  0  0  0  0  0  0  0  0  0  0  0
   16.5687   21.1574   14.5333 C   0  0  0  0  0  0  0  0  0  0  0  0
   16.8674   22.2070   13.6643 C   0  0  0  0  0  0  0  0  0  0  0  0
   15.8415   22.8857   13.0077 C   0  0  0  0  0  0  0  0  0  0  0  0
   14.5151   22.5291   13.2333 C   0  0  0  0  0  0  0  0  0  0  0  0
   14.2154   21.4826   14.1013 C   0  0  0  0  0  0  0  0  0  0  0  0
   15.2375   20.7852   14.7573 C   0  0  0  0  0  0  0  0  0  0  0  0
    7.5241   14.2903   14.6900 O   0  0  0  0  0  0  0  0  0  0  0  0
    6.1167   14.3254   14.9103 C   0  0  0  0  0  0  0  0  0  0  0  0
   19.5004   23.6689   16.2408 O   0  0  0  0  0  0  0  0  0  0  0  0
   19.5978   24.9867   15.7091 C   0  0  0  0  0  0  0  0  0  0  0  0
   18.1774   25.4530   15.4710 C   0  0  0  0  0  0  0  0  0  0  0  0
   15.2134   25.0770   19.5788 C   0  0  0  0  0  0  0  0  0  0  0  0
   10.0137   14.5915   14.2151 H   0  0  0  0  0  0  0  0  0  0  0  0
   11.3590   16.6458   14.5743 H   0  0  0  0  0  0  0  0  0  0  0  0
    7.8555   18.6325   16.1292 H   0  0  0  0  0  0  0  0  0  0  0  0
    6.5104   16.6827   15.6322 H   0  0  0  0  0  0  0  0  0  0  0  0
   10.4401   17.4890   18.7096 H   0  0  0  0  0  0  0  0  0  0  0  0
    9.3961   18.8022   18.1974 H   0  0  0  0  0  0  0  0  0  0  0  0
   11.7184   19.0535   20.1662 H   0  0  0  0  0  0  0  0  0  0  0  0
   10.8951   21.3732   20.5387 H   0  0  0  0  0  0  0  0  0  0  0  0
    9.7515   21.2008   19.1990 H   0  0  0  0  0  0  0  0  0  0  0  0
   11.4980   21.1810   18.8902 H   0  0  0  0  0  0  0  0  0  0  0  0
    9.6716   17.8912   21.0140 H   0  0  0  0  0  0  0  0  0  0  0  0
    8.6934   19.2976   20.5583 H   0  0  0  0  0  0  0  0  0  0  0  0
    9.9377   19.4507   21.8107 H   0  0  0  0  0  0  0  0  0  0  0  0
   12.9451   17.7002   16.5100 H   0  0  0  0  0  0  0  0  0  0  0  0
   12.5932   17.2837   18.1512 H   0  0  0  0  0  0  0  0  0  0  0  0
   13.4697   19.5452   18.9104 H   0  0  0  0  0  0  0  0  0  0  0  0
   15.2531   17.8034   17.5560 H   0  0  0  0  0  0  0  0  0  0  0  0
   13.2590   20.6999   16.6919 H   0  0  0  0  0  0  0  0  0  0  0  0
   15.9523   20.8941   17.9957 H   0  0  0  0  0  0  0  0  0  0  0  0
   14.6462   24.8686   17.5172 H   0  0  0  0  0  0  0  0  0  0  0  0
   16.2034   25.2233   21.4891 H   0  0  0  0  0  0  0  0  0  0  0  0
   16.7317   23.8500   20.5188 H   0  0  0  0  0  0  0  0  0  0  0  0
   18.4863   25.5574   20.5548 H   0  0  0  0  0  0  0  0  0  0  0  0
   17.3452   26.7958   20.0109 H   0  0  0  0  0  0  0  0  0  0  0  0
   18.6249   26.1670   18.1284 H   0  0  0  0  0  0  0  0  0  0  0  0
   17.9681   22.6008   17.1127 H   0  0  0  0  0  0  0  0  0  0  0  0
   16.5613   24.0616   15.7834 H   0  0  0  0  0  0  0  0  0  0  0  0
   16.3971   26.3520   17.2703 H   0  0  0  0  0  0  0  0  0  0  0  0
   14.2871   18.9384   15.1963 H   0  0  0  0  0  0  0  0  0  0  0  0
   15.8226   19.1556   16.0051 H   0  0  0  0  0  0  0  0  0  0  0  0
   17.3809   20.6455   15.0442 H   0  0  0  0  0  0  0  0  0  0  0  0
   17.9012   22.5084   13.5171 H   0  0  0  0  0  0  0  0  0  0  0  0
   16.0730   23.6974   12.3247 H   0  0  0  0  0  0  0  0  0  0  0  0
   13.7074   23.0653   12.7431 H   0  0  0  0  0  0  0  0  0  0  0  0
   13.1728   21.2256   14.2740 H   0  0  0  0  0  0  0  0  0  0  0  0
    5.7054   13.3294   14.7300 H   0  0  0  0  0  0  0  0  0  0  0  0
    5.6430   15.0215   14.2095 H   0  0  0  0  0  0  0  0  0  0  0  0
    5.8859   14.5922   15.9483 H   0  0  0  0  0  0  0  0  0  0  0  0
   20.1957   24.9776   14.7949 H   0  0  0  0  0  0  0  0  0  0  0  0
   20.1068   25.6202   16.4443 H   0  0  0  0  0  0  0  0  0  0  0  0
   18.0671   26.5252   15.6636 H   0  0  0  0  0  0  0  0  0  0  0  0
   17.8989   25.2853   14.4255 H   0  0  0  0  0  0  0  0  0  0  0  0
   14.3880   24.4910   19.9981 H   0  0  0  0  0  0  0  0  0  0  0  0
   14.9062   26.1290   19.5660 H   0  0  0  0  0  0  0  0  0  0  0  0
  1  2  2  0  0  0  0
  1  6  1  0  0  0  0
  1 38  1  0  0  0  0
  2  3  1  0  0  0  0
  2 44  1  0  0  0  0
  3  4  2  0  0  0  0
  3 45  1  0  0  0  0
  4  5  1  0  0  0  0
  4  7  1  0  0  0  0
  5  6  2  0  0  0  0
  5 46  1  0  0  0  0
  6 47  1  0  0  0  0
  7  8  2  0  0  0  0
  7  9  2  0  0  0  0
  7 10  1  0  0  0  0
 10 11  1  0  0  0  0
 10 15  1  0  0  0  0
 11 12  1  0  0  0  0
 11 48  1  0  0  0  0
 11 49  1  0  0  0  0
 12 13  1  0  0  0  0
 12 14  1  0  0  0  0
 12 50  1  0  0  0  0
 13 51  1  0  0  0  0
 13 52  1  0  0  0  0
 13 53  1  0  0  0  0
 14 54  1  0  0  0  0
 14 55  1  0  0  0  0
 14 56  1  0  0  0  0
 15 16  1  0  0  0  0
 15 57  1  0  0  0  0
 15 58  1  0  0  0  0
 16 17  1  0  0  0  0
 16 18  1  0  0  0  0
 16 59  1  1  0  0  0
 17 60  1  0  0  0  0
 18 19  1  0  0  0  0
 18 31  1  0  0  0  0
 18 61  1  6  0  0  0
 19 20  1  0  0  0  0
 19 62  1  0  0  0  0
 20 21  2  0  0  0  0
 20 22  1  0  0  0  0
 22 23  1  0  0  0  0
 23 30  1  0  0  0  0
 23 43  1  0  0  0  0
 23 63  1  6  0  0  0
 24 25  1  0  0  0  0
 24 43  1  0  0  0  0
 24 64  1  0  0  0  0
 24 65  1  0  0  0  0
 25 26  1  0  0  0  0
 25 66  1  0  0  0  0
 25 67  1  0  0  0  0
 26 27  1  0  0  0  0
 26 30  1  0  0  0  0
 26 68  1  6  0  0  0
 27 28  1  0  0  0  0
 28 29  1  0  0  0  0
 28 40  1  0  0  0  0
 28 69  1  1  0  0  0
 29 30  1  0  0  0  0
 29 42  1  0  0  0  0
 29 70  1  6  0  0  0
 30 71  1  6  0  0  0
 31 37  1  0  0  0  0
 31 72  1  0  0  0  0
 31 73  1  0  0  0  0
 32 33  2  0  0  0  0
 32 37  1  0  0  0  0
 32 74  1  0  0  0  0
 33 34  1  0  0  0  0
 33 75  1  0  0  0  0
 34 35  2  0  0  0  0
 34 76  1  0  0  0  0
 35 36  1  0  0  0  0
 35 77  1  0  0  0  0
 36 37  2  0  0  0  0
 36 78  1  0  0  0  0
 38 39  1  0  0  0  0
 39 79  1  0  0  0  0
 39 80  1  0  0  0  0
 39 81  1  0  0  0  0
 40 41  1  0  0  0  0
 41 42  1  0  0  0  0
 41 82  1  0  0  0  0
 41 83  1  0  0  0  0
 42 84  1  0  0  0  0
 42 85  1  0  0  0  0
 43 86  1  0  0  0  0
 43 87  1  0  0  0  0
M  END
$$$$
