G8M
 OpenBabel04111919013D

 22 22  0  0  1  0  0  0  0  0999 V2000
    5.7630   25.8043   20.9186 C   0  0  0  0  0  0  0  0  0  0  0  0
    4.8320   25.1857   20.3524 O   0  0  0  0  0  0  0  0  0  0  0  0
    6.3817   25.4007   21.9597 O   0  0  0  0  0  0  0  0  0  0  0  0
    6.2522   27.1079   20.2780 C   0  0  2  0  0  0  0  0  0  0  0  0
    7.6441   25.4062   17.5622 C   0  0  0  0  0  0  0  0  0  0  0  0
    6.4394   25.4155   17.3314 O   0  0  0  0  0  0  0  0  0  0  0  0
    8.6309   25.2311   16.7686 O   0  0  0  0  0  0  0  0  0  0  0  0
    8.0981   25.6453   19.0510 C   0  0  1  0  0  0  0  0  0  0  0  0
    9.6069   25.4934   19.1728 N   0  3  0  0  0  0  0  0  0  0  0  0
    7.6519   27.0191   19.5747 C   0  0  2  0  0  0  0  0  0  0  0  0
    8.2693   27.6319   20.8693 C   0  0  0  0  0  0  0  0  0  0  0  0
    6.8685   28.1077   21.2952 C   0  0  0  0  0  0  0  0  0  0  0  0
    5.4754   27.5571   19.6408 H   0  0  0  0  0  0  0  0  0  0  0  0
    7.6912   24.8558   19.6849 H   0  0  0  0  0  0  0  0  0  0  0  0
    9.9107   25.6375   20.1261 H   0  0  0  0  0  0  0  0  0  0  0  0
    9.8393   24.5514   18.8406 H   0  0  0  0  0  0  0  0  0  0  0  0
    7.7416   27.7372   18.7457 H   0  0  0  0  0  0  0  0  0  0  0  0
    8.9865   28.4424   20.6927 H   0  0  0  0  0  0  0  0  0  0  0  0
    8.7169   26.9025   21.5554 H   0  0  0  0  0  0  0  0  0  0  0  0
    6.6137   27.9041   22.3426 H   0  0  0  0  0  0  0  0  0  0  0  0
    6.6681   29.1670   21.0877 H   0  0  0  0  0  0  0  0  0  0  0  0
   10.0362   26.1486   18.5136 H   0  0  0  0  0  0  0  0  0  0  0  0
  1  2  2  0  0  0  0
  1  3  1  0  0  0  0
  1  4  1  0  0  0  0
  4 10  1  0  0  0  0
  4 12  1  0  0  0  0
  4 13  1  6  0  0  0
  5  6  2  0  0  0  0
  5  7  1  0  0  0  0
  5  8  1  0  0  0  0
  8  9  1  0  0  0  0
  8 10  1  0  0  0  0
  8 14  1  1  0  0  0
  9 15  1  0  0  0  0
  9 16  1  0  0  0  0
  9 22  1  0  0  0  0
 10 11  1  0  0  0  0
 10 17  1  6  0  0  0
 11 12  1  0  0  0  0
 11 18  1  0  0  0  0
 11 19  1  0  0  0  0
 12 20  1  0  0  0  0
 12 21  1  0  0  0  0
M  CHG  1   9   1
M  END
$$$$
