GA3
 OpenBabel04111921103D

 46 50  0  0  1  0  0  0  0  0999 V2000
    0.8761   20.1198   34.3328 O   0  0  0  0  0  0  0  0  0  0  0  0
    1.4348   20.8432   33.4596 C   0  0  0  0  0  0  0  0  0  0  0  0
    1.5513   20.6734   32.2199 O   0  0  0  0  0  0  0  0  0  0  0  0
    2.0493   22.1259   34.0233 C   0  0  1  0  0  0  0  0  0  0  0  0
    3.3209   22.6089   33.2981 C   0  0  1  0  0  0  0  0  0  0  0  0
    1.1017   23.3453   33.9966 C   0  0  1  0  0  0  0  0  0  0  0  0
   -0.0229   23.3382   32.9422 C   0  0  0  0  0  0  0  0  0  0  0  0
   -0.8951   24.4565   33.4581 C   0  0  0  0  0  0  0  0  0  0  0  0
   -1.7958   25.1320   32.7199 C   0  0  0  0  0  0  0  0  0  0  0  0
   -0.5698   24.7485   34.9060 C   0  0  2  0  0  0  0  0  0  0  0  0
    0.2541   23.5100   35.2734 C   0  0  0  0  0  0  0  0  0  0  0  0
   -1.7523   24.9129   35.6712 O   0  0  0  0  0  0  0  0  0  0  0  0
    0.3062   26.0028   35.0544 C   0  0  0  0  0  0  0  0  0  0  0  0
    1.7895   25.7132   34.8006 C   0  0  0  0  0  0  0  0  0  0  0  0
    2.0056   24.6093   33.7573 C   0  0  1  0  0  0  0  0  0  0  0  0
    3.4242   24.0647   33.7220 C   0  0  1  0  0  0  0  0  0  0  0  0
    3.9432   23.9840   35.0849 O   0  0  0  0  0  0  0  0  0  0  0  0
    4.4692   24.8264   32.9459 C   0  0  0  0  0  0  0  0  0  0  0  0
    5.6776   24.2347   32.8191 C   0  0  0  0  0  0  0  0  0  0  0  0
    5.8117   22.7347   32.9911 C   0  0  2  0  0  0  0  0  0  0  0  0
    5.7697   22.2412   31.6466 O   0  0  0  0  0  0  0  0  0  0  0  0
    4.6755   22.0970   33.8197 C   0  0  2  0  0  0  0  0  0  0  0  0
    4.7895   20.5833   33.9210 C   0  0  0  0  0  0  0  0  0  0  0  0
    4.7181   22.8251   35.1682 C   0  0  0  0  0  0  0  0  0  0  0  0
    5.3762   22.5059   36.1733 O   0  0  0  0  0  0  0  0  0  0  0  0
    2.3082   21.9238   35.0714 H   0  0  0  0  0  0  0  0  0  0  0  0
    3.2352   22.4932   32.2090 H   0  0  0  0  0  0  0  0  0  0  0  0
   -0.5972   22.4047   32.9686 H   0  0  0  0  0  0  0  0  0  0  0  0
    0.3427   23.5006   31.9232 H   0  0  0  0  0  0  0  0  0  0  0  0
   -1.9487   24.9040   31.6794 H   0  0  0  0  0  0  0  0  0  0  0  0
   -2.3521   25.9460   33.1807 H   0  0  0  0  0  0  0  0  0  0  0  0
    0.8691   23.6612   36.1668 H   0  0  0  0  0  0  0  0  0  0  0  0
   -0.3804   22.6357   35.4600 H   0  0  0  0  0  0  0  0  0  0  0  0
   -2.3189   24.1452   35.4900 H   0  0  0  0  0  0  0  0  0  0  0  0
    0.1890   26.4238   36.0630 H   0  0  0  0  0  0  0  0  0  0  0  0
   -0.0280   26.7887   34.3661 H   0  0  0  0  0  0  0  0  0  0  0  0
    2.2345   25.4211   35.7624 H   0  0  0  0  0  0  0  0  0  0  0  0
    2.2978   26.6312   34.4910 H   0  0  0  0  0  0  0  0  0  0  0  0
    1.7696   25.0394   32.7749 H   0  0  0  0  0  0  0  0  0  0  0  0
    4.2919   25.8242   32.5820 H   0  0  0  0  0  0  0  0  0  0  0  0
    6.5525   24.8144   32.5556 H   0  0  0  0  0  0  0  0  0  0  0  0
    6.7941   22.4897   33.4045 H   0  0  0  0  0  0  0  0  0  0  0  0
    5.7656   21.2679   31.6611 H   0  0  0  0  0  0  0  0  0  0  0  0
    4.0077   20.1520   34.5497 H   0  0  0  0  0  0  0  0  0  0  0  0
    5.7484   20.2855   34.3525 H   0  0  0  0  0  0  0  0  0  0  0  0
    4.7101   20.1164   32.9388 H   0  0  0  0  0  0  0  0  0  0  0  0
  1  2  2  0  0  0  0
  2  3  1  0  0  0  0
  2  4  1  0  0  0  0
  4  5  1  0  0  0  0
  4  6  1  0  0  0  0
  4 26  1  1  0  0  0
  5 16  1  0  0  0  0
  5 22  1  0  0  0  0
  5 27  1  6  0  0  0
  6  7  1  6  0  0  0
  6 11  1  0  0  0  0
  6 15  1  0  0  0  0
  7  8  1  0  0  0  0
  7 28  1  0  0  0  0
  7 29  1  0  0  0  0
  8  9  2  0  0  0  0
  8 10  1  0  0  0  0
  9 30  1  0  0  0  0
  9 31  1  0  0  0  0
 10 11  1  0  0  0  0
 10 12  1  1  0  0  0
 10 13  1  0  0  0  0
 11 32  1  0  0  0  0
 11 33  1  0  0  0  0
 12 34  1  0  0  0  0
 13 14  1  0  0  0  0
 13 35  1  0  0  0  0
 13 36  1  0  0  0  0
 14 15  1  0  0  0  0
 14 37  1  0  0  0  0
 14 38  1  0  0  0  0
 15 16  1  0  0  0  0
 15 39  1  6  0  0  0
 16 17  1  1  0  0  0
 16 18  1  0  0  0  0
 17 24  1  0  0  0  0
 18 19  2  0  0  0  0
 18 40  1  0  0  0  0
 19 20  1  0  0  0  0
 19 41  1  0  0  0  0
 20 21  1  0  0  0  0
 20 22  1  0  0  0  0
 20 42  1  1  0  0  0
 21 43  1  0  0  0  0
 22 23  1  1  0  0  0
 22 24  1  0  0  0  0
 23 44  1  0  0  0  0
 23 45  1  0  0  0  0
 23 46  1  0  0  0  0
 24 25  2  0  0  0  0
M  END
$$$$
