GDP
 OpenBabel04111920123D

 40 42  0  0  1  0  0  0  0  0999 V2000
   12.1841   -6.1851   -1.3133 P   0  0  0  0  0  0  0  0  0  0  0  0
   11.4696   -7.5339   -1.2744 O   0  0  0  0  0  0  0  0  0  0  0  0
   12.9541   -5.8933   -2.5938 O   0  0  0  0  0  0  0  0  0  0  0  0
   13.0449   -5.9755   -0.0619 O   0  0  0  0  0  0  0  0  0  0  0  0
   10.9976   -5.0737   -1.2026 O   0  0  0  0  0  0  0  0  0  0  0  0
   10.0151   -4.6543   -2.4054 P   0  0  1  0  0  0  0  0  0  0  0  0
   10.4935   -3.4235   -3.1631 O   0  0  0  0  0  0  0  0  0  0  0  0
    9.3793   -5.8019   -3.1659 O   0  0  0  0  0  0  0  0  0  0  0  0
    8.7601   -4.0206   -1.5315 O   0  0  0  0  0  0  0  0  0  0  0  0
    7.8179   -4.8889   -0.9284 C   0  0  0  0  0  0  0  0  0  0  0  0
    6.5061   -4.1160   -0.7302 C   0  0  1  0  0  0  0  0  0  0  0  0
    6.6980   -2.9364    0.0994 O   0  0  0  0  0  0  0  0  0  0  0  0
    5.9167   -3.6479   -2.0611 C   0  0  1  0  0  0  0  0  0  0  0  0
    4.4716   -3.7763   -1.9996 O   0  0  0  0  0  0  0  0  0  0  0  0
    6.2563   -2.1705   -2.1388 C   0  0  1  0  0  0  0  0  0  0  0  0
    5.2368   -1.4421   -2.8592 O   0  0  0  0  0  0  0  0  0  0  0  0
    6.3009   -1.7948   -0.6664 C   0  0  2  0  0  0  0  0  0  0  0  0
    7.1470   -0.6643   -0.3352 N   0  3  0  0  0  0  0  0  0  0  0  0
    8.4514   -0.4429   -0.7170 C   0  0  0  0  0  0  0  0  0  0  0  0
    8.9121    0.7173   -0.2650 N   0  0  0  0  0  0  0  0  0  0  0  0
    7.8757    1.2525    0.4612 C   0  0  0  0  0  0  0  0  0  0  0  0
    7.7827    2.5183    1.2218 C   0  0  0  0  0  0  0  0  0  0  0  0
    8.6790    3.3437    1.3293 O   0  0  0  0  0  0  0  0  0  0  0  0
    6.5362    2.7245    1.8052 N   0  3  0  0  0  0  0  0  0  0  0  0
    5.4671    1.8748    1.6977 C   0  0  0  0  0  0  0  0  0  0  0  0
    4.3884    2.2107    2.3108 N   0  0  0  0  0  0  0  0  0  0  0  0
    5.6090    0.7269    0.9690 N   0  3  0  0  0  0  0  0  0  0  0  0
    6.7823    0.4347    0.4032 C   0  0  0  0  0  0  0  0  0  0  0  0
    8.1870   -5.2272    0.0431 H   0  0  0  0  0  0  0  0  0  0  0  0
    7.6074   -5.7613   -1.5575 H   0  0  0  0  0  0  0  0  0  0  0  0
    5.7783   -4.7457   -0.2001 H   0  0  0  0  0  0  0  0  0  0  0  0
    6.2897   -4.2145   -2.9206 H   0  0  0  0  0  0  0  0  0  0  0  0
    4.1613   -3.5344   -2.8903 H   0  0  0  0  0  0  0  0  0  0  0  0
    7.2194   -2.0090   -2.6268 H   0  0  0  0  0  0  0  0  0  0  0  0
    4.4040   -1.5857   -2.3764 H   0  0  0  0  0  0  0  0  0  0  0  0
    5.2810   -1.5453   -0.3354 H   0  0  0  0  0  0  0  0  0  0  0  0
    9.0100   -1.1575   -1.3171 H   0  0  0  0  0  0  0  0  0  0  0  0
    6.4088    3.5694    2.3402 H   0  0  0  0  0  0  0  0  0  0  0  0
    3.6941    1.4738    2.1592 H   0  0  0  0  0  0  0  0  0  0  0  0
    4.8094    0.0644    0.9645 H   0  0  0  0  0  0  0  0  0  0  0  0
  1  2  2  0  0  0  0
  1  3  1  0  0  0  0
  1  4  1  0  0  0  0
  1  5  1  0  0  0  0
  6  5  1  1  0  0  0
  6  7  2  0  0  0  0
  6  8  1  0  0  0  0
  6  9  1  0  0  0  0
  9 10  1  0  0  0  0
 10 11  1  0  0  0  0
 10 29  1  0  0  0  0
 10 30  1  0  0  0  0
 11 12  1  0  0  0  0
 11 13  1  0  0  0  0
 11 31  1  1  0  0  0
 12 17  1  0  0  0  0
 13 14  1  0  0  0  0
 13 15  1  0  0  0  0
 13 32  1  6  0  0  0
 14 33  1  0  0  0  0
 15 16  1  0  0  0  0
 15 17  1  0  0  0  0
 15 34  1  6  0  0  0
 16 35  1  0  0  0  0
 17 18  1  0  0  0  0
 17 36  1  1  0  0  0
 18 19  2  0  0  0  0
 18 28  1  0  0  0  0
 19 20  1  0  0  0  0
 19 37  1  0  0  0  0
 20 21  2  0  0  0  0
 21 22  1  0  0  0  0
 21 28  1  0  0  0  0
 22 23  2  0  0  0  0
 22 24  1  0  0  0  0
 24 25  1  0  0  0  0
 24 38  1  0  0  0  0
 25 26  2  0  0  0  0
 25 27  1  0  0  0  0
 26 39  1  0  0  0  0
 27 28  2  0  0  0  0
 27 40  1  0  0  0  0
M  CHG  3  18   1  24   1  27   1
M  END
$$$$
