GDP
 OpenBabel04111920423D

 40 42  0  0  1  0  0  0  0  0999 V2000
   -4.8364  -27.0838  -11.6359 P   0  0  0  0  0  0  0  0  0  0  0  0
   -5.2783  -25.6421  -11.3993 O   0  0  0  0  0  0  0  0  0  0  0  0
   -3.8185  -27.1842  -12.7819 O   0  0  0  0  0  0  0  0  0  0  0  0
   -5.9977  -28.0632  -11.8003 O   0  0  0  0  0  0  0  0  0  0  0  0
   -4.0115  -27.4857  -10.3010 O   0  0  0  0  0  0  0  0  0  0  0  0
   -4.2853  -28.5799   -9.1669 P   0  0  1  0  0  0  0  0  0  0  0  0
   -3.0252  -28.8347   -8.3408 O   0  0  0  0  0  0  0  0  0  0  0  0
   -5.5606  -28.3879   -8.3590 O   0  0  0  0  0  0  0  0  0  0  0  0
   -4.4420  -29.8997  -10.0841 O   0  0  0  0  0  0  0  0  0  0  0  0
   -5.0191  -31.0391   -9.5192 C   0  0  0  0  0  0  0  0  0  0  0  0
   -5.0263  -32.0980  -10.6261 C   0  0  1  0  0  0  0  0  0  0  0  0
   -4.0861  -33.1437  -10.2549 O   0  0  0  0  0  0  0  0  0  0  0  0
   -6.3815  -32.7907  -10.7950 C   0  0  1  0  0  0  0  0  0  0  0  0
   -6.5171  -33.3641  -12.1035 O   0  0  0  0  0  0  0  0  0  0  0  0
   -6.3147  -33.9254   -9.7926 C   0  0  1  0  0  0  0  0  0  0  0  0
   -7.1469  -35.0468  -10.1226 O   0  0  0  0  0  0  0  0  0  0  0  0
   -4.8243  -34.2664   -9.7735 C   0  0  2  0  0  0  0  0  0  0  0  0
   -4.2874  -34.6276   -8.4702 N   0  3  0  0  0  0  0  0  0  0  0  0
   -3.3245  -35.6007   -8.2878 C   0  0  0  0  0  0  0  0  0  0  0  0
   -3.0697  -35.8352   -7.0154 N   0  0  0  0  0  0  0  0  0  0  0  0
   -3.8527  -34.9300   -6.3412 C   0  0  0  0  0  0  0  0  0  0  0  0
   -3.9825  -34.6954   -4.9049 C   0  0  0  0  0  0  0  0  0  0  0  0
   -3.3451  -35.2854   -4.0304 O   0  0  0  0  0  0  0  0  0  0  0  0
   -4.9424  -33.7395   -4.5787 N   0  3  0  0  0  0  0  0  0  0  0  0
   -5.6661  -32.9980   -5.4798 C   0  0  0  0  0  0  0  0  0  0  0  0
   -6.4851  -32.1597   -4.9765 N   0  0  0  0  0  0  0  0  0  0  0  0
   -5.4725  -33.2237   -6.8190 N   0  3  0  0  0  0  0  0  0  0  0  0
   -4.6016  -34.1798   -7.2125 C   0  0  0  0  0  0  0  0  0  0  0  0
   -6.0301  -30.8088   -9.1659 H   0  0  0  0  0  0  0  0  0  0  0  0
   -4.4062  -31.3446   -8.6651 H   0  0  0  0  0  0  0  0  0  0  0  0
   -4.6840  -31.6794  -11.5792 H   0  0  0  0  0  0  0  0  0  0  0  0
   -7.2324  -32.1222  -10.6292 H   0  0  0  0  0  0  0  0  0  0  0  0
   -7.4519  -33.6038  -12.2015 H   0  0  0  0  0  0  0  0  0  0  0  0
   -6.6849  -33.5668   -8.8379 H   0  0  0  0  0  0  0  0  0  0  0  0
   -8.0610  -34.7160  -10.1093 H   0  0  0  0  0  0  0  0  0  0  0  0
   -4.6157  -35.1051  -10.4479 H   0  0  0  0  0  0  0  0  0  0  0  0
   -2.8565  -36.1017   -9.1252 H   0  0  0  0  0  0  0  0  0  0  0  0
   -5.0707  -33.5007   -3.6148 H   0  0  0  0  0  0  0  0  0  0  0  0
   -6.9295  -31.6152   -5.7201 H   0  0  0  0  0  0  0  0  0  0  0  0
   -5.8780  -32.5287   -7.4279 H   0  0  0  0  0  0  0  0  0  0  0  0
  1  2  2  0  0  0  0
  1  3  1  0  0  0  0
  1  4  1  0  0  0  0
  1  5  1  0  0  0  0
  6  5  1  6  0  0  0
  6  7  2  0  0  0  0
  6  8  1  0  0  0  0
  6  9  1  0  0  0  0
  9 10  1  0  0  0  0
 10 11  1  0  0  0  0
 10 29  1  0  0  0  0
 10 30  1  0  0  0  0
 11 12  1  0  0  0  0
 11 13  1  0  0  0  0
 11 31  1  6  0  0  0
 12 17  1  0  0  0  0
 13 14  1  0  0  0  0
 13 15  1  0  0  0  0
 13 32  1  1  0  0  0
 14 33  1  0  0  0  0
 15 16  1  0  0  0  0
 15 17  1  0  0  0  0
 15 34  1  1  0  0  0
 16 35  1  0  0  0  0
 17 18  1  0  0  0  0
 17 36  1  6  0  0  0
 18 19  2  0  0  0  0
 18 28  1  0  0  0  0
 19 20  1  0  0  0  0
 19 37  1  0  0  0  0
 20 21  2  0  0  0  0
 21 22  1  0  0  0  0
 21 28  1  0  0  0  0
 22 23  2  0  0  0  0
 22 24  1  0  0  0  0
 24 25  1  0  0  0  0
 24 38  1  0  0  0  0
 25 26  2  0  0  0  0
 25 27  1  0  0  0  0
 26 39  1  0  0  0  0
 27 28  2  0  0  0  0
 27 40  1  0  0  0  0
M  CHG  3  18   1  24   1  27   1
M  END
$$$$
