GDS
 OpenBabel04111922543D

 70 69  0  0  1  0  0  0  0  0999 V2000
  -10.5171    4.5105   -3.7301 N   0  3  0  0  0  0  0  0  0  0  0  0
  -10.6028    5.5337   -4.8270 C   0  0  2  0  0  0  0  0  0  0  0  0
  -11.7161    5.1932   -5.8501 C   0  0  0  0  0  0  0  0  0  0  0  0
  -11.8706    3.9557   -6.0405 O   0  0  0  0  0  0  0  0  0  0  0  0
  -12.4295    6.1781   -6.1896 O   0  0  0  0  0  0  0  0  0  0  0  0
   -9.2688    5.5671   -5.5477 C   0  0  0  0  0  0  0  0  0  0  0  0
   -9.1097    6.8865   -6.2949 C   0  0  0  0  0  0  0  0  0  0  0  0
   -7.8170    6.9011   -7.0620 C   0  0  0  0  0  0  0  0  0  0  0  0
   -6.8308    6.2564   -6.6969 O   0  0  0  0  0  0  0  0  0  0  0  0
   -7.8140    7.7167   -8.1477 N   0  0  0  0  0  0  0  0  0  0  0  0
   -6.5745    8.0356   -8.8497 C   0  0  2  0  0  0  0  0  0  0  0  0
   -6.2019    9.4865   -8.6095 C   0  0  0  0  0  0  0  0  0  0  0  0
   -7.0709   10.3721   -8.6115 O   0  0  0  0  0  0  0  0  0  0  0  0
   -6.7248    7.8227  -10.3399 C   0  0  0  0  0  0  0  0  0  0  0  0
   -6.5428    6.0704  -10.7835 S   0  0  0  0  0  0  0  0  0  0  0  0
   -4.8667    9.7523   -8.5512 N   0  0  0  0  0  0  0  0  0  0  0  0
   -4.3765   11.0616   -8.1313 C   0  0  0  0  0  0  0  0  0  0  0  0
   -3.5462   11.0841   -6.8330 C   0  0  0  0  0  0  0  0  0  0  0  0
   -2.4811   11.7932   -6.8417 O   0  0  0  0  0  0  0  0  0  0  0  0
   -3.9059   10.3344   -5.8910 O   0  0  0  0  0  0  0  0  0  0  0  0
   -5.1046    4.0700   -6.3084 N   0  0  0  0  0  0  0  0  0  0  0  0
   -5.4114    2.9840   -5.3827 C   0  0  0  0  0  0  0  0  0  0  0  0
   -6.7703    2.3010   -5.6151 C   0  0  0  0  0  0  0  0  0  0  0  0
   -7.1959    2.2816   -6.8025 O   0  0  0  0  0  0  0  0  0  0  0  0
   -7.3734    1.8986   -4.5393 O   0  0  0  0  0  0  0  0  0  0  0  0
   -3.9357    4.1242   -7.0026 C   0  0  0  0  0  0  0  0  0  0  0  0
   -3.0062    3.3208   -6.8465 O   0  0  0  0  0  0  0  0  0  0  0  0
   -3.8580    5.2029   -8.0735 C   0  0  1  0  0  0  0  0  0  0  0  0
   -2.4806    5.6775   -8.1836 N   0  0  0  0  0  0  0  0  0  0  0  0
   -4.3246    4.6036   -9.3863 C   0  0  0  0  0  0  0  0  0  0  0  0
   -4.4989    5.8553  -10.7043 S   0  0  0  0  0  0  0  0  0  0  0  0
   -0.7271    8.6402   -5.8614 C   0  0  1  0  0  0  0  0  0  0  0  0
    0.3107    7.7668   -5.1066 C   0  0  0  0  0  0  0  0  0  0  0  0
    1.2718    8.4482   -4.6109 O   0  0  0  0  0  0  0  0  0  0  0  0
    0.0540    6.5394   -5.0379 O   0  0  0  0  0  0  0  0  0  0  0  0
   -0.6673   10.0630   -5.3998 N   0  3  0  0  0  0  0  0  0  0  0  0
   -0.4199    8.6438   -7.3567 C   0  0  0  0  0  0  0  0  0  0  0  0
   -0.6938    7.2880   -8.0028 C   0  0  0  0  0  0  0  0  0  0  0  0
   -2.1713    6.9820   -7.9843 C   0  0  0  0  0  0  0  0  0  0  0  0
   -3.0239    7.8584   -7.8882 O   0  0  0  0  0  0  0  0  0  0  0  0
   -9.7464    4.7055   -3.0905 H   0  0  0  0  0  0  0  0  0  0  0  0
  -11.4216    4.4492   -3.2684 H   0  0  0  0  0  0  0  0  0  0  0  0
  -10.8015    6.4848   -4.3197 H   0  0  0  0  0  0  0  0  0  0  0  0
   -9.2023    4.7399   -6.2647 H   0  0  0  0  0  0  0  0  0  0  0  0
   -8.4403    5.4507   -4.8364 H   0  0  0  0  0  0  0  0  0  0  0  0
   -9.0858    7.7151   -5.5786 H   0  0  0  0  0  0  0  0  0  0  0  0
   -9.9422    7.0389   -6.9816 H   0  0  0  0  0  0  0  0  0  0  0  0
   -8.6781    8.1309   -8.4822 H   0  0  0  0  0  0  0  0  0  0  0  0
   -5.7627    7.4371   -8.4508 H   0  0  0  0  0  0  0  0  0  0  0  0
   -5.9876    8.3918  -10.9169 H   0  0  0  0  0  0  0  0  0  0  0  0
   -7.7209    8.1321  -10.6801 H   0  0  0  0  0  0  0  0  0  0  0  0
   -4.1939    8.9766   -8.5104 H   0  0  0  0  0  0  0  0  0  0  0  0
   -5.2254   11.7441   -7.9979 H   0  0  0  0  0  0  0  0  0  0  0  0
   -3.7750   11.4260   -8.9690 H   0  0  0  0  0  0  0  0  0  0  0  0
   -5.8400    4.7630   -6.4788 H   0  0  0  0  0  0  0  0  0  0  0  0
   -5.3814    3.4212   -4.3803 H   0  0  0  0  0  0  0  0  0  0  0  0
   -4.6275    2.2206   -5.4446 H   0  0  0  0  0  0  0  0  0  0  0  0
   -4.5070    6.0121   -7.7639 H   0  0  0  0  0  0  0  0  0  0  0  0
   -1.7480    4.9826   -8.3018 H   0  0  0  0  0  0  0  0  0  0  0  0
   -5.2739    4.0776   -9.2679 H   0  0  0  0  0  0  0  0  0  0  0  0
   -3.5873    3.8818   -9.7605 H   0  0  0  0  0  0  0  0  0  0  0  0
   -1.7435    8.2952   -5.6573 H   0  0  0  0  0  0  0  0  0  0  0  0
   -1.3625   10.6642   -5.8918 H   0  0  0  0  0  0  0  0  0  0  0  0
   -0.8674   10.0647   -4.3979 H   0  0  0  0  0  0  0  0  0  0  0  0
    0.6311    8.9008   -7.5240 H   0  0  0  0  0  0  0  0  0  0  0  0
   -1.0304    9.4086   -7.8579 H   0  0  0  0  0  0  0  0  0  0  0  0
   -0.1526    6.4962   -7.4885 H   0  0  0  0  0  0  0  0  0  0  0  0
   -0.3653    7.3072   -9.0464 H   0  0  0  0  0  0  0  0  0  0  0  0
  -10.3574    3.5947   -4.2026 H   0  0  0  0  0  0  0  0  0  0  0  0
    0.2987   10.3857   -5.5123 H   0  0  0  0  0  0  0  0  0  0  0  0
  1  2  1  0  0  0  0
  1 41  1  0  0  0  0
  1 42  1  0  0  0  0
  1 69  1  0  0  0  0
  2  3  1  0  0  0  0
  2  6  1  0  0  0  0
  2 43  1  1  0  0  0
  3  4  2  0  0  0  0
  3  5  1  0  0  0  0
  6  7  1  0  0  0  0
  6 44  1  0  0  0  0
  6 45  1  0  0  0  0
  7  8  1  0  0  0  0
  7 46  1  0  0  0  0
  7 47  1  0  0  0  0
  8  9  2  0  0  0  0
  8 10  1  0  0  0  0
 10 11  1  0  0  0  0
 10 48  1  0  0  0  0
 11 12  1  0  0  0  0
 11 14  1  0  0  0  0
 11 49  1  1  0  0  0
 12 13  2  0  0  0  0
 12 16  1  0  0  0  0
 14 15  1  0  0  0  0
 14 50  1  0  0  0  0
 14 51  1  0  0  0  0
 15 31  1  0  0  0  0
 16 17  1  0  0  0  0
 16 52  1  0  0  0  0
 17 18  1  0  0  0  0
 17 53  1  0  0  0  0
 17 54  1  0  0  0  0
 18 19  2  0  0  0  0
 18 20  1  0  0  0  0
 21 22  1  0  0  0  0
 21 26  1  0  0  0  0
 21 55  1  0  0  0  0
 22 23  1  0  0  0  0
 22 56  1  0  0  0  0
 22 57  1  0  0  0  0
 23 24  2  0  0  0  0
 23 25  1  0  0  0  0
 26 27  2  0  0  0  0
 26 28  1  0  0  0  0
 28 29  1  0  0  0  0
 28 30  1  0  0  0  0
 28 58  1  1  0  0  0
 29 39  1  0  0  0  0
 29 59  1  0  0  0  0
 30 31  1  0  0  0  0
 30 60  1  0  0  0  0
 30 61  1  0  0  0  0
 32 33  1  0  0  0  0
 32 36  1  0  0  0  0
 32 37  1  0  0  0  0
 32 62  1  1  0  0  0
 33 34  2  0  0  0  0
 33 35  1  0  0  0  0
 36 63  1  0  0  0  0
 36 64  1  0  0  0  0
 36 70  1  0  0  0  0
 37 38  1  0  0  0  0
 37 65  1  0  0  0  0
 37 66  1  0  0  0  0
 38 39  1  0  0  0  0
 38 67  1  0  0  0  0
 38 68  1  0  0  0  0
 39 40  2  0  0  0  0
M  CHG  2   1   1  36   1
M  END
$$$$
