GDS
 OpenBabel04111922543D

 70 69  0  0  1  0  0  0  0  0999 V2000
   27.9211  108.1795   24.9866 N   0  3  0  0  0  0  0  0  0  0  0  0
   27.8349  106.9645   25.8901 C   0  0  2  0  0  0  0  0  0  0  0  0
   26.8030  107.1618   27.0397 C   0  0  0  0  0  0  0  0  0  0  0  0
   26.7583  108.3649   27.4383 O   0  0  0  0  0  0  0  0  0  0  0  0
   26.0730  106.1735   27.2866 O   0  0  0  0  0  0  0  0  0  0  0  0
   29.2232  106.7236   26.4624 C   0  0  0  0  0  0  0  0  0  0  0  0
   29.3016  105.3383   27.1003 C   0  0  0  0  0  0  0  0  0  0  0  0
   30.7087  105.0304   27.5491 C   0  0  0  0  0  0  0  0  0  0  0  0
   31.6258  105.8300   27.4562 O   0  0  0  0  0  0  0  0  0  0  0  0
   30.8423  103.7894   28.1177 N   0  0  0  0  0  0  0  0  0  0  0  0
   32.1316  103.3096   28.6364 C   0  0  2  0  0  0  0  0  0  0  0  0
   32.4176  101.9453   28.0053 C   0  0  0  0  0  0  0  0  0  0  0  0
   31.5347  101.1039   27.9869 O   0  0  0  0  0  0  0  0  0  0  0  0
   32.0087  103.1543   30.1591 C   0  0  0  0  0  0  0  0  0  0  0  0
   33.4320  102.3123   30.9542 S   0  0  0  0  0  0  0  0  0  0  0  0
   33.7156  101.7178   27.6232 N   0  0  0  0  0  0  0  0  0  0  0  0
   34.0897  100.4254   27.0545 C   0  0  0  0  0  0  0  0  0  0  0  0
   34.3901  100.3315   25.5276 C   0  0  0  0  0  0  0  0  0  0  0  0
   34.3349  101.3939   24.8931 O   0  0  0  0  0  0  0  0  0  0  0  0
   34.6536   99.1583   25.1226 O   0  0  0  0  0  0  0  0  0  0  0  0
   37.6457  104.7270   27.7177 N   0  0  0  0  0  0  0  0  0  0  0  0
   37.8471  105.2238   26.3450 C   0  0  0  0  0  0  0  0  0  0  0  0
   37.0533  106.4870   25.9007 C   0  0  0  0  0  0  0  0  0  0  0  0
   36.3443  107.0392   26.7957 O   0  0  0  0  0  0  0  0  0  0  0  0
   37.3183  106.8897   24.7297 O   0  0  0  0  0  0  0  0  0  0  0  0
   36.5267  103.9753   27.9965 C   0  0  0  0  0  0  0  0  0  0  0  0
   35.6602  103.7142   27.1614 O   0  0  0  0  0  0  0  0  0  0  0  0
   36.3056  103.5292   29.4487 C   0  0  1  0  0  0  0  0  0  0  0  0
   37.5535  103.2437   30.1631 N   0  0  0  0  0  0  0  0  0  0  0  0
   35.4332  104.5532   30.1627 C   0  0  0  0  0  0  0  0  0  0  0  0
   34.6103  103.8523   31.6572 S   0  0  0  0  0  0  0  0  0  0  0  0
   40.4975  100.0071   32.0982 C   0  0  1  0  0  0  0  0  0  0  0  0
   40.1643   98.9055   33.1326 C   0  0  0  0  0  0  0  0  0  0  0  0
   39.3138   99.2015   34.0133 O   0  0  0  0  0  0  0  0  0  0  0  0
   40.8706   97.8670   32.9544 O   0  0  0  0  0  0  0  0  0  0  0  0
   41.4933   99.5781   31.0592 N   0  3  0  0  0  0  0  0  0  0  0  0
   39.2259  100.4583   31.3988 C   0  0  0  0  0  0  0  0  0  0  0  0
   39.4295  101.7904   30.6959 C   0  0  0  0  0  0  0  0  0  0  0  0
   38.2258  102.0909   29.8452 C   0  0  0  0  0  0  0  0  0  0  0  0
   37.9106  101.3405   28.9343 O   0  0  0  0  0  0  0  0  0  0  0  0
   28.6170  108.0659   24.2532 H   0  0  0  0  0  0  0  0  0  0  0  0
   26.9829  108.3607   24.6112 H   0  0  0  0  0  0  0  0  0  0  0  0
   27.5323  106.1431   25.2361 H   0  0  0  0  0  0  0  0  0  0  0  0
   29.4757  107.4878   27.2105 H   0  0  0  0  0  0  0  0  0  0  0  0
   29.9817  106.7987   25.6709 H   0  0  0  0  0  0  0  0  0  0  0  0
   28.9778  104.5815   26.3776 H   0  0  0  0  0  0  0  0  0  0  0  0
   28.6393  105.2956   27.9709 H   0  0  0  0  0  0  0  0  0  0  0  0
   30.0722  103.1290   28.1229 H   0  0  0  0  0  0  0  0  0  0  0  0
   32.9286  104.0091   28.3834 H   0  0  0  0  0  0  0  0  0  0  0  0
   31.1057  102.5714   30.3966 H   0  0  0  0  0  0  0  0  0  0  0  0
   31.8538  104.1329   30.6278 H   0  0  0  0  0  0  0  0  0  0  0  0
   34.3650  102.4827   27.4588 H   0  0  0  0  0  0  0  0  0  0  0  0
   33.2815   99.7191   27.2521 H   0  0  0  0  0  0  0  0  0  0  0  0
   34.9751  100.0934   27.6106 H   0  0  0  0  0  0  0  0  0  0  0  0
   38.2192  105.0994   28.4572 H   0  0  0  0  0  0  0  0  0  0  0  0
   37.5902  104.4095   25.6589 H   0  0  0  0  0  0  0  0  0  0  0  0
   38.9172  105.4284   26.2374 H   0  0  0  0  0  0  0  0  0  0  0  0
   35.7582  102.5844   29.3638 H   0  0  0  0  0  0  0  0  0  0  0  0
   37.8167  103.8220   30.9489 H   0  0  0  0  0  0  0  0  0  0  0  0
   34.6597  104.9628   29.5087 H   0  0  0  0  0  0  0  0  0  0  0  0
   36.0488  105.3964   30.4997 H   0  0  0  0  0  0  0  0  0  0  0  0
   40.9623  100.8491   32.6213 H   0  0  0  0  0  0  0  0  0  0  0  0
   41.7272  100.2932   30.3757 H   0  0  0  0  0  0  0  0  0  0  0  0
   42.3299   99.2274   31.5599 H   0  0  0  0  0  0  0  0  0  0  0  0
   38.4075  100.5656   32.1208 H   0  0  0  0  0  0  0  0  0  0  0  0
   38.8964   99.6821   30.6904 H   0  0  0  0  0  0  0  0  0  0  0  0
   40.2976  101.7513   30.0288 H   0  0  0  0  0  0  0  0  0  0  0  0
   39.6187  102.5834   31.4252 H   0  0  0  0  0  0  0  0  0  0  0  0
   28.1303  108.9796   25.6040 H   0  0  0  0  0  0  0  0  0  0  0  0
   41.1177   98.7307   30.6032 H   0  0  0  0  0  0  0  0  0  0  0  0
  1  2  1  0  0  0  0
  1 41  1  0  0  0  0
  1 42  1  0  0  0  0
  1 69  1  0  0  0  0
  2  3  1  0  0  0  0
  2  6  1  0  0  0  0
  2 43  1  6  0  0  0
  3  4  2  0  0  0  0
  3  5  1  0  0  0  0
  6  7  1  0  0  0  0
  6 44  1  0  0  0  0
  6 45  1  0  0  0  0
  7  8  1  0  0  0  0
  7 46  1  0  0  0  0
  7 47  1  0  0  0  0
  8  9  2  0  0  0  0
  8 10  1  0  0  0  0
 10 11  1  0  0  0  0
 10 48  1  0  0  0  0
 11 12  1  0  0  0  0
 11 14  1  0  0  0  0
 11 49  1  6  0  0  0
 12 13  2  0  0  0  0
 12 16  1  0  0  0  0
 14 15  1  0  0  0  0
 14 50  1  0  0  0  0
 14 51  1  0  0  0  0
 15 31  1  0  0  0  0
 16 17  1  0  0  0  0
 16 52  1  0  0  0  0
 17 18  1  0  0  0  0
 17 53  1  0  0  0  0
 17 54  1  0  0  0  0
 18 19  2  0  0  0  0
 18 20  1  0  0  0  0
 21 22  1  0  0  0  0
 21 26  1  0  0  0  0
 21 55  1  0  0  0  0
 22 23  1  0  0  0  0
 22 56  1  0  0  0  0
 22 57  1  0  0  0  0
 23 24  2  0  0  0  0
 23 25  1  0  0  0  0
 26 27  2  0  0  0  0
 26 28  1  0  0  0  0
 28 29  1  0  0  0  0
 28 30  1  0  0  0  0
 28 58  1  6  0  0  0
 29 39  1  0  0  0  0
 29 59  1  0  0  0  0
 30 31  1  0  0  0  0
 30 60  1  0  0  0  0
 30 61  1  0  0  0  0
 32 33  1  0  0  0  0
 32 36  1  0  0  0  0
 32 37  1  0  0  0  0
 32 62  1  1  0  0  0
 33 34  2  0  0  0  0
 33 35  1  0  0  0  0
 36 63  1  0  0  0  0
 36 64  1  0  0  0  0
 36 70  1  0  0  0  0
 37 38  1  0  0  0  0
 37 65  1  0  0  0  0
 37 66  1  0  0  0  0
 38 39  1  0  0  0  0
 38 67  1  0  0  0  0
 38 68  1  0  0  0  0
 39 40  2  0  0  0  0
M  CHG  2   1   1  36   1
M  END
$$$$
