GIF
 OpenBabel04111922063D

 24 24  0  0  1  0  0  0  0  0999 V2000
   76.0077   88.9009   19.5187 C   0  0  0  0  0  0  0  0  0  0  0  0
   76.3340   88.8934   18.0719 N   0  3  0  0  0  0  0  0  0  0  0  0
   80.2142   87.5239   16.8124 O   0  0  0  0  0  0  0  0  0  0  0  0
   77.2360   89.1221   20.4094 C   0  0  2  0  0  0  0  0  0  0  0  0
   78.0058   86.8444   20.2692 O   0  0  0  0  0  0  0  0  0  0  0  0
   78.3796   88.1988   20.0074 C   0  0  1  0  0  0  0  0  0  0  0  0
   76.8461   88.8326   21.7532 O   0  0  0  0  0  0  0  0  0  0  0  0
   78.7226   88.3243   18.5234 C   0  0  2  0  0  0  0  0  0  0  0  0
   77.4996   88.0507   17.6500 C   0  0  0  0  0  0  0  0  0  0  0  0
   79.8229   87.3228   18.1582 C   0  0  0  0  0  0  0  0  0  0  0  0
   75.5091   87.9471   19.7575 H   0  0  0  0  0  0  0  0  0  0  0  0
   75.2817   89.7010   19.6876 H   0  0  0  0  0  0  0  0  0  0  0  0
   75.5083   88.5407   17.5735 H   0  0  0  0  0  0  0  0  0  0  0  0
   80.7751   88.3176   16.7570 H   0  0  0  0  0  0  0  0  0  0  0  0
   77.5472   90.1751   20.3612 H   0  0  0  0  0  0  0  0  0  0  0  0
   77.7820   86.7835   21.2223 H   0  0  0  0  0  0  0  0  0  0  0  0
   79.2706   88.4173   20.6170 H   0  0  0  0  0  0  0  0  0  0  0  0
   77.5939   89.0248   22.3510 H   0  0  0  0  0  0  0  0  0  0  0  0
   79.0763   89.3445   18.3176 H   0  0  0  0  0  0  0  0  0  0  0  0
   77.6959   88.3162   16.6075 H   0  0  0  0  0  0  0  0  0  0  0  0
   77.1712   87.0095   17.6964 H   0  0  0  0  0  0  0  0  0  0  0  0
   80.6903   87.4308   18.8195 H   0  0  0  0  0  0  0  0  0  0  0  0
   79.4618   86.2959   18.2470 H   0  0  0  0  0  0  0  0  0  0  0  0
   76.4604   89.8581   17.7273 H   0  0  0  0  0  0  0  0  0  0  0  0
  1  2  1  0  0  0  0
  1  4  1  0  0  0  0
  1 11  1  0  0  0  0
  1 12  1  0  0  0  0
  2  9  1  0  0  0  0
  2 13  1  0  0  0  0
  2 24  1  0  0  0  0
  3 10  1  0  0  0  0
  3 14  1  0  0  0  0
  4  6  1  0  0  0  0
  4  7  1  0  0  0  0
  4 15  1  6  0  0  0
  5  6  1  0  0  0  0
  5 16  1  0  0  0  0
  6  8  1  0  0  0  0
  6 17  1  1  0  0  0
  7 18  1  0  0  0  0
  8  9  1  0  0  0  0
  8 10  1  0  0  0  0
  8 19  1  6  0  0  0
  9 20  1  0  0  0  0
  9 21  1  0  0  0  0
 10 22  1  0  0  0  0
 10 23  1  0  0  0  0
M  CHG  1   2   1
M  END
$$$$
