GLN
 OpenBabel04111919533D

 20 19  0  0  1  0  0  0  0  0999 V2000
   25.0817    8.2567   32.1206 N   0  3  0  0  0  0  0  0  0  0  0  0
   25.2854    7.8537   33.5560 C   0  0  2  0  0  0  0  0  0  0  0  0
   26.6332    8.3683   34.1317 C   0  0  0  0  0  0  0  0  0  0  0  0
   27.4216    8.8105   33.2483 O   0  0  0  0  0  0  0  0  0  0  0  0
   25.1641    6.3346   33.6840 C   0  0  0  0  0  0  0  0  0  0  0  0
   26.3075    5.5609   33.0455 C   0  0  0  0  0  0  0  0  0  0  0  0
   26.1668    4.0667   33.2928 C   0  0  0  0  0  0  0  0  0  0  0  0
   25.4901    3.5803   34.1657 O   0  0  0  0  0  0  0  0  0  0  0  0
   26.8920    3.2948   32.4311 N   0  0  0  0  0  0  0  0  0  0  0  0
   26.7343    8.2876   35.3694 O   0  0  0  0  0  0  0  0  0  0  0  0
   24.1961    7.9184   31.7578 H   0  0  0  0  0  0  0  0  0  0  0  0
   25.1332    9.2806   32.0678 H   0  0  0  0  0  0  0  0  0  0  0  0
   24.4594    8.3116   34.1152 H   0  0  0  0  0  0  0  0  0  0  0  0
   24.2203    6.0026   33.2271 H   0  0  0  0  0  0  0  0  0  0  0  0
   25.1285    6.0855   34.7529 H   0  0  0  0  0  0  0  0  0  0  0  0
   27.2570    5.8779   33.4815 H   0  0  0  0  0  0  0  0  0  0  0  0
   26.3168    5.7446   31.9675 H   0  0  0  0  0  0  0  0  0  0  0  0
   26.8571    2.2863   32.5320 H   0  0  0  0  0  0  0  0  0  0  0  0
   27.4772    3.7075   31.7230 H   0  0  0  0  0  0  0  0  0  0  0  0
   25.8752    7.9050   31.5732 H   0  0  0  0  0  0  0  0  0  0  0  0
  1  2  1  0  0  0  0
  1 11  1  0  0  0  0
  1 12  1  0  0  0  0
  1 20  1  0  0  0  0
  2  3  1  0  0  0  0
  2  5  1  0  0  0  0
  2 13  1  1  0  0  0
  3  4  2  0  0  0  0
  3 10  1  0  0  0  0
  5  6  1  0  0  0  0
  5 14  1  0  0  0  0
  5 15  1  0  0  0  0
  6  7  1  0  0  0  0
  6 16  1  0  0  0  0
  6 17  1  0  0  0  0
  7  8  2  0  0  0  0
  7  9  1  0  0  0  0
  9 18  1  0  0  0  0
  9 19  1  0  0  0  0
M  CHG  1   1   1
M  END
$$$$
