GLU
 OpenBabel04111919303D

 18 17  0  0  1  0  0  0  0  0999 V2000
    3.7272   49.1896   -7.6202 N   0  3  0  0  0  0  0  0  0  0  0  0
    3.3885   50.6721   -7.6749 C   0  0  2  0  0  0  0  0  0  0  0  0
    1.9103   50.8745   -7.1949 C   0  0  0  0  0  0  0  0  0  0  0  0
    1.3238   49.7431   -7.0751 O   0  0  0  0  0  0  0  0  0  0  0  0
    3.5142   51.1466   -9.1231 C   0  0  0  0  0  0  0  0  0  0  0  0
    4.8873   50.9168   -9.7677 C   0  0  0  0  0  0  0  0  0  0  0  0
    6.0487   51.7137   -9.1724 C   0  0  0  0  0  0  0  0  0  0  0  0
    5.7581   52.4882   -8.2270 O   0  0  0  0  0  0  0  0  0  0  0  0
    7.1716   51.4192   -9.6641 O   0  0  0  0  0  0  0  0  0  0  0  0
    1.5106   52.0315   -6.9486 O   0  0  0  0  0  0  0  0  0  0  0  0
    4.6693   48.9691   -7.9420 H   0  0  0  0  0  0  0  0  0  0  0  0
    3.5579   48.8993   -6.6533 H   0  0  0  0  0  0  0  0  0  0  0  0
    4.0790   51.1571   -6.9815 H   0  0  0  0  0  0  0  0  0  0  0  0
    3.2688   52.2118   -9.1734 H   0  0  0  0  0  0  0  0  0  0  0  0
    2.7644   50.6342   -9.7405 H   0  0  0  0  0  0  0  0  0  0  0  0
    4.8155   51.1994  -10.8233 H   0  0  0  0  0  0  0  0  0  0  0  0
    5.1584   49.8589   -9.7527 H   0  0  0  0  0  0  0  0  0  0  0  0
    2.9759   48.7264   -8.1431 H   0  0  0  0  0  0  0  0  0  0  0  0
  1  2  1  0  0  0  0
  1 11  1  0  0  0  0
  1 12  1  0  0  0  0
  1 18  1  0  0  0  0
  2  3  1  0  0  0  0
  2  5  1  0  0  0  0
  2 13  1  1  0  0  0
  3  4  2  0  0  0  0
  3 10  1  0  0  0  0
  5  6  1  0  0  0  0
  5 14  1  0  0  0  0
  5 15  1  0  0  0  0
  6  7  1  0  0  0  0
  6 16  1  0  0  0  0
  6 17  1  0  0  0  0
  7  8  2  0  0  0  0
  7  9  1  0  0  0  0
M  CHG  1   1   1
M  END
$$$$
