GLU
 OpenBabel04111921243D

 25 24  0  0  1  0  0  0  0  0999 V2000
   14.5657    8.3964   12.3098 N   0  3  0  0  0  0  0  0  0  0  0  0
   13.6089    7.2529   12.2793 C   0  0  0  0  0  0  0  0  0  0  0  0
   13.1200    6.9597   10.8652 C   0  0  0  0  0  0  0  0  0  0  0  0
   13.8038    7.2343    9.9066 O   0  0  0  0  0  0  0  0  0  0  0  0
   11.9170    6.3247   10.8592 N   0  0  0  0  0  0  0  0  0  0  0  0
   11.3193    5.8909    9.5875 C   0  0  2  0  0  0  0  0  0  0  0  0
   10.7565    7.0481    8.6898 C   0  0  0  0  0  0  0  0  0  0  0  0
   10.4085    8.1089    9.2905 O   0  0  0  0  0  0  0  0  0  0  0  0
   10.2265    4.8591    9.8612 C   0  0  0  0  0  0  0  0  0  0  0  0
   10.7006    3.6219   10.6019 C   0  0  0  0  0  0  0  0  0  0  0  0
   10.4474    3.6951   12.1213 C   0  0  0  0  0  0  0  0  0  0  0  0
   10.5847    2.6056   12.7470 O   0  0  0  0  0  0  0  0  0  0  0  0
   10.2004    4.8419   12.6023 O   0  0  0  0  0  0  0  0  0  0  0  0
   10.7502    6.8123    7.4465 O   0  0  0  0  0  0  0  0  0  0  0  0
   14.8842    8.5609   13.2635 H   0  0  0  0  0  0  0  0  0  0  0  0
   15.3573    8.1863   11.6918 H   0  0  0  0  0  0  0  0  0  0  0  0
   12.7863    7.5231   12.9375 H   0  0  0  0  0  0  0  0  0  0  0  0
   14.1558    6.3882   12.6647 H   0  0  0  0  0  0  0  0  0  0  0  0
   11.3405    6.2115   11.6982 H   0  0  0  0  0  0  0  0  0  0  0  0
   12.1247    5.3976    9.0253 H   0  0  0  0  0  0  0  0  0  0  0  0
    9.7993    4.5449    8.8834 H   0  0  0  0  0  0  0  0  0  0  0  0
    9.4095    5.3372   10.4202 H   0  0  0  0  0  0  0  0  0  0  0  0
   11.7745    3.4772   10.4138 H   0  0  0  0  0  0  0  0  0  0  0  0
   10.1703    2.7457   10.2026 H   0  0  0  0  0  0  0  0  0  0  0  0
   14.0939    9.2290   11.9401 H   0  0  0  0  0  0  0  0  0  0  0  0
  1  2  1  0  0  0  0
  1 15  1  0  0  0  0
  1 16  1  0  0  0  0
  1 25  1  0  0  0  0
  2  3  1  0  0  0  0
  2 17  1  0  0  0  0
  2 18  1  0  0  0  0
  3  4  2  0  0  0  0
  3  5  1  0  0  0  0
  5  6  1  0  0  0  0
  5 19  1  0  0  0  0
  6  7  1  0  0  0  0
  6  9  1  0  0  0  0
  6 20  1  6  0  0  0
  7  8  2  0  0  0  0
  7 14  1  0  0  0  0
  9 10  1  0  0  0  0
  9 21  1  0  0  0  0
  9 22  1  0  0  0  0
 10 11  1  0  0  0  0
 10 23  1  0  0  0  0
 10 24  1  0  0  0  0
 11 12  2  0  0  0  0
 11 13  1  0  0  0  0
M  CHG  1   1   1
M  END
$$$$
