GNP
 OpenBabel04111919263D

 45 47  0  0  1  0  0  0  0  0999 V2000
   21.2906   -2.4676  -48.9560 P   0  0  0  0  0  0  0  0  0  0  0  0
   20.7070   -3.0503  -50.2287 O   0  0  0  0  0  0  0  0  0  0  0  0
   20.5236   -1.2180  -48.4929 O   0  0  0  0  0  0  0  0  0  0  0  0
   21.4989   -3.4521  -47.8214 O   0  0  0  0  0  0  0  0  0  0  0  0
   22.8070   -1.7989  -49.2762 N   0  0  0  0  0  0  0  0  0  0  0  0
   24.0539   -2.5772  -50.0914 P   0  0  2  0  0  0  0  0  0  0  0  0
   23.6732   -3.2882  -51.3649 O   0  0  0  0  0  0  0  0  0  0  0  0
   24.9069   -3.3304  -49.0720 O   0  0  0  0  0  0  0  0  0  0  0  0
   24.9821   -1.3048  -50.5123 O   0  0  0  0  0  0  0  0  0  0  0  0
   25.0529   -0.6426  -51.9758 P   0  0  1  0  0  0  0  0  0  0  0  0
   25.8954   -1.4260  -52.9677 O   0  0  0  0  0  0  0  0  0  0  0  0
   23.7885    0.0820  -52.3868 O   0  0  0  0  0  0  0  0  0  0  0  0
   26.0818    0.6166  -51.6589 O   0  0  0  0  0  0  0  0  0  0  0  0
   25.7681    1.4819  -50.5951 C   0  0  0  0  0  0  0  0  0  0  0  0
   26.7986    2.6203  -50.5417 C   0  0  1  0  0  0  0  0  0  0  0  0
   28.1013    2.1350  -50.1115 O   0  0  0  0  0  0  0  0  0  0  0  0
   27.0245    3.3997  -51.8552 C   0  0  1  0  0  0  0  0  0  0  0  0
   27.1722    4.8228  -51.5853 O   0  0  0  0  0  0  0  0  0  0  0  0
   28.3682    2.8785  -52.3684 C   0  0  1  0  0  0  0  0  0  0  0  0
   29.1038    3.8508  -53.1414 O   0  0  0  0  0  0  0  0  0  0  0  0
   29.0817    2.5628  -51.0592 C   0  0  2  0  0  0  0  0  0  0  0  0
   30.1675    1.6154  -51.0926 N   0  3  0  0  0  0  0  0  0  0  0  0
   30.3587    0.6024  -51.9965 C   0  0  0  0  0  0  0  0  0  0  0  0
   31.4726   -0.0764  -51.7580 N   0  0  0  0  0  0  0  0  0  0  0  0
   31.9754    0.4661  -50.6183 C   0  0  0  0  0  0  0  0  0  0  0  0
   33.1481    0.0759  -49.8459 C   0  0  0  0  0  0  0  0  0  0  0  0
   33.8998   -0.8532  -50.1006 O   0  0  0  0  0  0  0  0  0  0  0  0
   33.3613    0.9022  -48.7129 N   0  3  0  0  0  0  0  0  0  0  0  0
   32.5965    1.9911  -48.3654 C   0  0  0  0  0  0  0  0  0  0  0  0
   32.9582    2.6408  -47.3257 N   0  0  0  0  0  0  0  0  0  0  0  0
   31.5025    2.3283  -49.1481 N   0  3  0  0  0  0  0  0  0  0  0  0
   31.2231    1.5462  -50.2235 C   0  0  0  0  0  0  0  0  0  0  0  0
   22.8250   -0.8060  -49.1376 H   0  0  0  0  0  0  0  0  0  0  0  0
   25.8165    0.9110  -49.6644 H   0  0  0  0  0  0  0  0  0  0  0  0
   24.7634    1.9087  -50.7049 H   0  0  0  0  0  0  0  0  0  0  0  0
   26.4924    3.3081  -49.7479 H   0  0  0  0  0  0  0  0  0  0  0  0
   26.2158    3.2937  -52.5837 H   0  0  0  0  0  0  0  0  0  0  0  0
   27.7614    4.9273  -50.8229 H   0  0  0  0  0  0  0  0  0  0  0  0
   28.2109    1.9957  -52.9879 H   0  0  0  0  0  0  0  0  0  0  0  0
   29.1040    4.6826  -52.6366 H   0  0  0  0  0  0  0  0  0  0  0  0
   29.5057    3.4981  -50.6600 H   0  0  0  0  0  0  0  0  0  0  0  0
   29.6623    0.3995  -52.8062 H   0  0  0  0  0  0  0  0  0  0  0  0
   34.1255    0.6672  -48.1292 H   0  0  0  0  0  0  0  0  0  0  0  0
   32.3143    3.4093  -47.1515 H   0  0  0  0  0  0  0  0  0  0  0  0
   30.8859    3.0509  -48.8338 H   0  0  0  0  0  0  0  0  0  0  0  0
  1  2  2  0  0  0  0
  1  3  1  0  0  0  0
  1  4  1  0  0  0  0
  1  5  1  0  0  0  0
  5 33  1  0  0  0  0
  6  5  1  1  0  0  0
  6  7  2  0  0  0  0
  6  8  1  0  0  0  0
  6  9  1  0  0  0  0
 10  9  1  1  0  0  0
 10 11  2  0  0  0  0
 10 12  1  0  0  0  0
 10 13  1  0  0  0  0
 13 14  1  0  0  0  0
 14 15  1  0  0  0  0
 14 34  1  0  0  0  0
 14 35  1  0  0  0  0
 15 16  1  0  0  0  0
 15 17  1  0  0  0  0
 15 36  1  1  0  0  0
 16 21  1  0  0  0  0
 17 18  1  0  0  0  0
 17 19  1  0  0  0  0
 17 37  1  6  0  0  0
 18 38  1  0  0  0  0
 19 20  1  0  0  0  0
 19 21  1  0  0  0  0
 19 39  1  6  0  0  0
 20 40  1  0  0  0  0
 21 22  1  0  0  0  0
 21 41  1  1  0  0  0
 22 23  2  0  0  0  0
 22 32  1  0  0  0  0
 23 24  1  0  0  0  0
 23 42  1  0  0  0  0
 24 25  2  0  0  0  0
 25 26  1  0  0  0  0
 25 32  1  0  0  0  0
 26 27  2  0  0  0  0
 26 28  1  0  0  0  0
 28 29  1  0  0  0  0
 28 43  1  0  0  0  0
 29 30  2  0  0  0  0
 29 31  1  0  0  0  0
 30 44  1  0  0  0  0
 31 32  2  0  0  0  0
 31 45  1  0  0  0  0
M  CHG  3  22   1  28   1  31   1
M  END
$$$$
