GT0
 OpenBabel04111918463D

 26 26  0  0  0  0  0  0  0  0999 V2000
   28.7928    8.0837   39.5317 C   0  0  0  0  0  0  0  0  0  0  0  0
   29.6263    8.8038   38.7355 N   0  0  0  0  0  0  0  0  0  0  0  0
   30.5269    8.1231   37.9860 C   0  0  0  0  0  0  0  0  0  0  0  0
   30.6145    6.7356   38.0359 C   0  0  0  0  0  0  0  0  0  0  0  0
   29.7488    6.0029   38.8642 C   0  0  0  0  0  0  0  0  0  0  0  0
   28.7998    6.6920   39.6457 C   0  0  0  0  0  0  0  0  0  0  0  0
   29.8555    4.4911   38.9107 C   0  0  0  0  0  0  0  0  0  0  0  0
   30.3748    4.0448   40.1646 O   0  0  0  0  0  0  0  0  0  0  0  0
   31.7794    4.2433   40.2802 C   0  0  0  0  0  0  0  0  0  0  0  0
   27.8225    5.9821   40.5588 C   0  0  0  0  0  0  0  0  0  0  0  0
   26.9553    6.8876   41.2370 O   0  0  0  0  0  0  0  0  0  0  0  0
   31.4485    8.9409   37.1178 C   0  0  0  0  0  0  0  0  0  0  0  0
   31.5525    6.1065   37.2603 O   0  0  0  0  0  0  0  0  0  0  0  0
   28.0904    8.6890   40.1040 H   0  0  0  0  0  0  0  0  0  0  0  0
   30.4620    4.0867   38.0933 H   0  0  0  0  0  0  0  0  0  0  0  0
   28.8607    4.0541   38.7778 H   0  0  0  0  0  0  0  0  0  0  0  0
   32.1091    3.8739   41.2543 H   0  0  0  0  0  0  0  0  0  0  0  0
   32.0279    5.3067   40.2198 H   0  0  0  0  0  0  0  0  0  0  0  0
   32.3102    3.6908   39.4983 H   0  0  0  0  0  0  0  0  0  0  0  0
   28.3629    5.4131   41.3203 H   0  0  0  0  0  0  0  0  0  0  0  0
   27.1910    5.3073   39.9722 H   0  0  0  0  0  0  0  0  0  0  0  0
   26.3707    6.3521   41.8021 H   0  0  0  0  0  0  0  0  0  0  0  0
   32.1447    8.3209   36.5455 H   0  0  0  0  0  0  0  0  0  0  0  0
   32.0500    9.6188   37.7322 H   0  0  0  0  0  0  0  0  0  0  0  0
   30.8718    9.5307   36.3984 H   0  0  0  0  0  0  0  0  0  0  0  0
   32.1008    5.5592   37.8476 H   0  0  0  0  0  0  0  0  0  0  0  0
  1  2  2  0  0  0  0
  1  6  1  0  0  0  0
  1 14  1  0  0  0  0
  2  3  1  0  0  0  0
  3  4  2  0  0  0  0
  3 12  1  0  0  0  0
  4  5  1  0  0  0  0
  4 13  1  0  0  0  0
  5  6  2  0  0  0  0
  5  7  1  0  0  0  0
  6 10  1  0  0  0  0
  7  8  1  0  0  0  0
  7 15  1  0  0  0  0
  7 16  1  0  0  0  0
  8  9  1  0  0  0  0
  9 17  1  0  0  0  0
  9 18  1  0  0  0  0
  9 19  1  0  0  0  0
 10 11  1  0  0  0  0
 10 20  1  0  0  0  0
 10 21  1  0  0  0  0
 11 22  1  0  0  0  0
 12 23  1  0  0  0  0
 12 24  1  0  0  0  0
 12 25  1  0  0  0  0
 13 26  1  0  0  0  0
M  END
$$$$
