GTP
 OpenBabel04111919483D

 44 46  0  0  1  0  0  0  0  0999 V2000
    0.4945    9.1359   50.8013 P   0  0  0  0  0  0  0  0  0  0  0  0
    0.7767    7.9316   49.8992 O   0  0  0  0  0  0  0  0  0  0  0  0
    0.0229   10.3371   49.9583 O   0  0  0  0  0  0  0  0  0  0  0  0
    1.6524    9.5430   51.7013 O   0  0  0  0  0  0  0  0  0  0  0  0
   -0.7793    8.7610   51.7578 O   0  0  0  0  0  0  0  0  0  0  0  0
   -0.8259    7.5085   52.7831 P   0  0  1  0  0  0  0  0  0  0  0  0
   -1.5099    6.2967   52.1379 O   0  0  0  0  0  0  0  0  0  0  0  0
    0.4716    7.3030   53.5345 O   0  0  0  0  0  0  0  0  0  0  0  0
   -1.9260    8.0279   53.8910 O   0  0  0  0  0  0  0  0  0  0  0  0
   -1.5916    8.4664   55.4002 P   0  0  2  0  0  0  0  0  0  0  0  0
   -0.9107    9.8177   55.5252 O   0  0  0  0  0  0  0  0  0  0  0  0
   -1.2093    7.3353   56.3384 O   0  0  0  0  0  0  0  0  0  0  0  0
   -3.1394    8.8012   55.9045 O   0  0  0  0  0  0  0  0  0  0  0  0
   -3.8371    9.8776   55.2938 C   0  0  0  0  0  0  0  0  0  0  0  0
   -4.8774   10.4273   56.2783 C   0  0  1  0  0  0  0  0  0  0  0  0
   -5.8567    9.4032   56.6200 O   0  0  0  0  0  0  0  0  0  0  0  0
   -4.2152   10.8852   57.5785 C   0  0  1  0  0  0  0  0  0  0  0  0
   -4.8699   12.0799   58.0579 O   0  0  0  0  0  0  0  0  0  0  0  0
   -4.4700    9.7367   58.5384 C   0  0  1  0  0  0  0  0  0  0  0  0
   -4.5604   10.1646   59.9058 O   0  0  0  0  0  0  0  0  0  0  0  0
   -5.8035    9.2177   58.0366 C   0  0  2  0  0  0  0  0  0  0  0  0
   -6.0800    7.8363   58.3850 N   0  3  0  0  0  0  0  0  0  0  0  0
   -5.2178    6.7590   58.2921 C   0  0  0  0  0  0  0  0  0  0  0  0
   -5.7746    5.6469   58.7564 N   0  0  0  0  0  0  0  0  0  0  0  0
   -7.0383    6.0120   59.1175 C   0  0  0  0  0  0  0  0  0  0  0  0
   -8.1303    5.2291   59.6409 C   0  0  0  0  0  0  0  0  0  0  0  0
   -8.0816    4.0333   59.8944 O   0  0  0  0  0  0  0  0  0  0  0  0
   -9.2939    5.9645   59.9538 N   0  3  0  0  0  0  0  0  0  0  0  0
   -9.4344    7.3171   59.7469 C   0  0  0  0  0  0  0  0  0  0  0  0
  -10.5863    7.8536   60.0585 N   0  0  0  0  0  0  0  0  0  0  0  0
   -8.3844    8.0123   59.2473 N   0  3  0  0  0  0  0  0  0  0  0  0
   -7.2445    7.3741   58.9250 C   0  0  0  0  0  0  0  0  0  0  0  0
   -4.3532    9.5246   54.3952 H   0  0  0  0  0  0  0  0  0  0  0  0
   -3.1509   10.6886   55.0262 H   0  0  0  0  0  0  0  0  0  0  0  0
   -5.4370   11.2554   55.8229 H   0  0  0  0  0  0  0  0  0  0  0  0
   -3.1490   11.0995   57.4574 H   0  0  0  0  0  0  0  0  0  0  0  0
   -4.4046   12.3262   58.8747 H   0  0  0  0  0  0  0  0  0  0  0  0
   -3.6874    8.9784   58.4416 H   0  0  0  0  0  0  0  0  0  0  0  0
   -3.6819   10.5305   60.1156 H   0  0  0  0  0  0  0  0  0  0  0  0
   -6.6144    9.8234   58.4659 H   0  0  0  0  0  0  0  0  0  0  0  0
   -4.2051    6.8205   57.9034 H   0  0  0  0  0  0  0  0  0  0  0  0
  -10.0537    5.4402   60.3367 H   0  0  0  0  0  0  0  0  0  0  0  0
  -10.5296    8.8402   59.8378 H   0  0  0  0  0  0  0  0  0  0  0  0
   -8.4932    8.9900   59.0455 H   0  0  0  0  0  0  0  0  0  0  0  0
  1  2  2  0  0  0  0
  1  3  1  0  0  0  0
  1  4  1  0  0  0  0
  1  5  1  0  0  0  0
  6  5  1  6  0  0  0
  6  7  2  0  0  0  0
  6  8  1  0  0  0  0
  6  9  1  0  0  0  0
 10  9  1  6  0  0  0
 10 11  2  0  0  0  0
 10 12  1  0  0  0  0
 10 13  1  0  0  0  0
 13 14  1  0  0  0  0
 14 15  1  0  0  0  0
 14 33  1  0  0  0  0
 14 34  1  0  0  0  0
 15 16  1  0  0  0  0
 15 17  1  0  0  0  0
 15 35  1  6  0  0  0
 16 21  1  0  0  0  0
 17 18  1  0  0  0  0
 17 19  1  0  0  0  0
 17 36  1  6  0  0  0
 18 37  1  0  0  0  0
 19 20  1  0  0  0  0
 19 21  1  0  0  0  0
 19 38  1  6  0  0  0
 20 39  1  0  0  0  0
 21 22  1  0  0  0  0
 21 40  1  1  0  0  0
 22 23  2  0  0  0  0
 22 32  1  0  0  0  0
 23 24  1  0  0  0  0
 23 41  1  0  0  0  0
 24 25  2  0  0  0  0
 25 26  1  0  0  0  0
 25 32  1  0  0  0  0
 26 27  2  0  0  0  0
 26 28  1  0  0  0  0
 28 29  1  0  0  0  0
 28 42  1  0  0  0  0
 29 30  2  0  0  0  0
 29 31  1  0  0  0  0
 30 43  1  0  0  0  0
 31 32  2  0  0  0  0
 31 44  1  0  0  0  0
M  CHG  3  22   1  28   1  31   1
M  END
$$$$
