GYR
 OpenBabel04111922153D

 65 68  0  0  1  0  0  0  0  0999 V2000
  -27.7897   16.4812  -16.7172 O   0  0  0  0  0  0  0  0  0  0  0  0
  -27.9336   15.0317  -16.6883 S   0  0  0  0  0  0  0  0  0  0  0  0
  -28.7905   14.3728  -17.6452 O   0  0  0  0  0  0  0  0  0  0  0  0
  -28.5134   14.6316  -15.0598 C   0  0  0  0  0  0  0  0  0  0  0  0
  -28.1634   15.4527  -13.9851 C   0  0  0  0  0  0  0  0  0  0  0  0
  -28.6650   15.1707  -12.7170 C   0  0  0  0  0  0  0  0  0  0  0  0
  -29.4994   14.0707  -12.5273 C   0  0  0  0  0  0  0  0  0  0  0  0
  -29.8485   13.2574  -13.6056 C   0  0  0  0  0  0  0  0  0  0  0  0
  -29.3622   13.5381  -14.8803 C   0  0  0  0  0  0  0  0  0  0  0  0
  -26.2959   14.3434  -16.7337 C   0  0  0  0  0  0  0  0  0  0  0  0
  -26.2523   12.8914  -17.0969 C   0  0  0  0  0  0  0  0  0  0  0  0
  -26.2700   12.5013  -18.4497 C   0  0  0  0  0  0  0  0  0  0  0  0
  -25.9766   11.1985  -18.8165 C   0  0  0  0  0  0  0  0  0  0  0  0
  -25.8894   10.8520  -20.2750 C   0  0  0  0  0  0  0  0  0  0  0  0
  -25.6881   10.2390  -17.8254 C   0  0  0  0  0  0  0  0  0  0  0  0
  -25.6998   10.5952  -16.4795 C   0  0  0  0  0  0  0  0  0  0  0  0
  -26.0172   11.9064  -16.1211 C   0  0  0  0  0  0  0  0  0  0  0  0
  -25.3654    9.7798  -15.4250 O   0  0  0  0  0  0  0  0  0  0  0  0
  -24.9469    8.4435  -15.7165 C   0  0  0  0  0  0  0  0  0  0  0  0
  -24.4478    7.7616  -14.4487 C   0  0  0  0  0  0  0  0  0  0  0  0
  -24.6657    6.3930  -14.2433 C   0  0  0  0  0  0  0  0  0  0  0  0
  -24.2982    5.7706  -13.0382 C   0  0  0  0  0  0  0  0  0  0  0  0
  -23.6895    6.4993  -12.0080 C   0  0  0  0  0  0  0  0  0  0  0  0
  -23.3782    7.8447  -12.2609 C   0  0  0  0  0  0  0  0  0  0  0  0
  -23.7477    8.4674  -13.4640 C   0  0  0  0  0  0  0  0  0  0  0  0
  -23.2957    5.8585  -10.6925 C   0  0  0  0  0  0  0  0  0  0  0  0
  -24.4375    5.2316   -9.8745 N   0  3  2  0  0  0  0  0  0  0  0  0
  -25.4226    6.2236   -9.2073 C   0  0  1  0  0  0  0  0  0  0  0  0
  -26.8213    6.0965   -9.8138 C   0  0  0  0  0  0  0  0  0  0  0  0
  -27.4029    4.8161   -9.5857 O   0  0  0  0  0  0  0  0  0  0  0  0
  -25.4316    5.8708   -7.7144 C   0  0  0  0  0  0  0  0  0  0  0  0
  -24.1420    5.1275   -7.4868 C   0  0  0  0  0  0  0  0  0  0  0  0
  -23.9630    4.3221   -8.7539 C   0  0  0  0  0  0  0  0  0  0  0  0
  -27.5155   16.3159  -14.1280 H   0  0  0  0  0  0  0  0  0  0  0  0
  -28.4174   15.8130  -11.8752 H   0  0  0  0  0  0  0  0  0  0  0  0
  -29.8868   13.8525  -11.5348 H   0  0  0  0  0  0  0  0  0  0  0  0
  -30.5108   12.4097  -13.4523 H   0  0  0  0  0  0  0  0  0  0  0  0
  -29.6505   12.9140  -15.7230 H   0  0  0  0  0  0  0  0  0  0  0  0
  -25.8127   14.5209  -15.7672 H   0  0  0  0  0  0  0  0  0  0  0  0
  -25.7315   14.9122  -17.4846 H   0  0  0  0  0  0  0  0  0  0  0  0
  -26.4825   13.2579  -19.2141 H   0  0  0  0  0  0  0  0  0  0  0  0
  -25.6474    9.7945  -20.4117 H   0  0  0  0  0  0  0  0  0  0  0  0
  -25.0989   11.4431  -20.7517 H   0  0  0  0  0  0  0  0  0  0  0  0
  -26.8410   11.0572  -20.7727 H   0  0  0  0  0  0  0  0  0  0  0  0
  -25.4603    9.2260  -18.1429 H   0  0  0  0  0  0  0  0  0  0  0  0
  -26.0425   12.1768  -15.0690 H   0  0  0  0  0  0  0  0  0  0  0  0
  -24.1476    8.4279  -16.4672 H   0  0  0  0  0  0  0  0  0  0  0  0
  -25.8217    7.8893  -16.0806 H   0  0  0  0  0  0  0  0  0  0  0  0
  -25.1516    5.8034  -15.0206 H   0  0  0  0  0  0  0  0  0  0  0  0
  -24.5015    4.7089  -12.9263 H   0  0  0  0  0  0  0  0  0  0  0  0
  -22.8493    8.4431  -11.5204 H   0  0  0  0  0  0  0  0  0  0  0  0
  -23.5134    9.5203  -13.6185 H   0  0  0  0  0  0  0  0  0  0  0  0
  -22.7962    6.5885  -10.0471 H   0  0  0  0  0  0  0  0  0  0  0  0
  -22.5790    5.0556  -10.9154 H   0  0  0  0  0  0  0  0  0  0  0  0
  -25.0290    7.2318   -9.3523 H   0  0  0  0  0  0  0  0  0  0  0  0
  -26.7921    6.2926  -10.8870 H   0  0  0  0  0  0  0  0  0  0  0  0
  -27.4754    6.8359   -9.3371 H   0  0  0  0  0  0  0  0  0  0  0  0
  -26.9202    4.1162  -10.0487 H   0  0  0  0  0  0  0  0  0  0  0  0
  -26.2853    5.2441   -7.4228 H   0  0  0  0  0  0  0  0  0  0  0  0
  -25.4835    6.7769   -7.1004 H   0  0  0  0  0  0  0  0  0  0  0  0
  -24.1967    4.4873   -6.6007 H   0  0  0  0  0  0  0  0  0  0  0  0
  -23.3191    5.8365   -7.3559 H   0  0  0  0  0  0  0  0  0  0  0  0
  -22.9274    4.0203   -8.9195 H   0  0  0  0  0  0  0  0  0  0  0  0
  -24.6222    3.4458   -8.7585 H   0  0  0  0  0  0  0  0  0  0  0  0
  -24.9520    4.6577  -10.5469 H   0  0  0  0  0  0  0  0  0  0  0  0
  1  2  2  0  0  0  0
  2  3  2  0  0  0  0
  2  4  1  0  0  0  0
  2 10  1  0  0  0  0
  4  5  2  0  0  0  0
  4  9  1  0  0  0  0
  5  6  1  0  0  0  0
  5 34  1  0  0  0  0
  6  7  2  0  0  0  0
  6 35  1  0  0  0  0
  7  8  1  0  0  0  0
  7 36  1  0  0  0  0
  8  9  2  0  0  0  0
  8 37  1  0  0  0  0
  9 38  1  0  0  0  0
 10 11  1  0  0  0  0
 10 39  1  0  0  0  0
 10 40  1  0  0  0  0
 11 12  2  0  0  0  0
 11 17  1  0  0  0  0
 12 13  1  0  0  0  0
 12 41  1  0  0  0  0
 13 14  1  0  0  0  0
 13 15  2  0  0  0  0
 14 42  1  0  0  0  0
 14 43  1  0  0  0  0
 14 44  1  0  0  0  0
 15 16  1  0  0  0  0
 15 45  1  0  0  0  0
 16 17  2  0  0  0  0
 16 18  1  0  0  0  0
 17 46  1  0  0  0  0
 18 19  1  0  0  0  0
 19 20  1  0  0  0  0
 19 47  1  0  0  0  0
 19 48  1  0  0  0  0
 20 21  2  0  0  0  0
 20 25  1  0  0  0  0
 21 22  1  0  0  0  0
 21 49  1  0  0  0  0
 22 23  2  0  0  0  0
 22 50  1  0  0  0  0
 23 24  1  0  0  0  0
 23 26  1  0  0  0  0
 24 25  2  0  0  0  0
 24 51  1  0  0  0  0
 25 52  1  0  0  0  0
 26 27  1  0  0  0  0
 26 53  1  0  0  0  0
 26 54  1  0  0  0  0
 27 28  1  0  0  0  0
 27 33  1  0  0  0  0
 27 65  1  6  0  0  0
 28 29  1  0  0  0  0
 28 31  1  0  0  0  0
 28 55  1  6  0  0  0
 29 30  1  0  0  0  0
 29 56  1  0  0  0  0
 29 57  1  0  0  0  0
 30 58  1  0  0  0  0
 31 32  1  0  0  0  0
 31 59  1  0  0  0  0
 31 60  1  0  0  0  0
 32 33  1  0  0  0  0
 32 61  1  0  0  0  0
 32 62  1  0  0  0  0
 33 63  1  0  0  0  0
 33 64  1  0  0  0  0
M  CHG  1  27   1
M  END
$$$$
