H24
 OpenBabel04111918583D

 46 48  0  0  1  0  0  0  0  0999 V2000
   30.4629    8.5299   23.5495 C   0  0  0  0  0  0  0  0  0  0  0  0
   29.2986    8.4744   22.7285 O   0  0  0  0  0  0  0  0  0  0  0  0
   29.1088    9.5446   21.8956 C   0  0  0  0  0  0  0  0  0  0  0  0
   30.0339   10.5586   21.6601 C   0  0  0  0  0  0  0  0  0  0  0  0
   29.7132   11.6143   20.8111 C   0  0  0  0  0  0  0  0  0  0  0  0
   28.4484   11.6802   20.2281 C   0  0  0  0  0  0  0  0  0  0  0  0
   27.4854   10.6830   20.4634 C   0  0  0  0  0  0  0  0  0  0  0  0
   27.8607    9.5946   21.2673 C   0  0  0  0  0  0  0  0  0  0  0  0
   26.1115   10.8091   19.9300 C   0  0  0  0  0  0  0  0  0  0  0  0
   25.8827   11.3884   18.6751 C   0  0  0  0  0  0  0  0  0  0  0  0
   24.5920   11.5781   18.1994 C   0  0  0  0  0  0  0  0  0  0  0  0
   23.5104   11.1738   18.9727 C   0  0  0  0  0  0  0  0  0  0  0  0
   23.6774   10.5523   20.2269 C   0  0  0  0  0  0  0  0  0  0  0  0
   22.4282   10.1246   21.0042 C   0  0  2  0  0  0  0  0  0  0  0  0
   21.5655    9.2256   20.0977 C   0  0  0  0  0  0  0  0  0  0  0  0
   21.6245   11.3493   21.4277 C   0  0  0  0  0  0  0  0  0  0  0  0
   22.3015   12.0502   22.5737 C   0  0  0  0  0  0  0  0  0  0  0  0
   22.2620   13.2589   22.7017 O   0  0  0  0  0  0  0  0  0  0  0  0
   22.8574   11.1871   23.5736 N   0  0  0  0  0  0  0  0  0  0  0  0
   23.4173   11.8398   24.7790 C   0  0  0  0  0  0  0  0  0  0  0  0
   22.9168    9.8464   23.4104 C   0  0  0  0  0  0  0  0  0  0  0  0
   23.1311    9.0011   24.4360 N   0  0  0  0  0  0  0  0  0  0  0  0
   22.7584    9.2975   22.1842 N   0  0  0  0  0  0  0  0  0  0  0  0
   24.9921   10.3915   20.6912 C   0  0  0  0  0  0  0  0  0  0  0  0
   30.4768    7.6373   24.1808 H   0  0  0  0  0  0  0  0  0  0  0  0
   30.4361    9.4067   24.2071 H   0  0  0  0  0  0  0  0  0  0  0  0
   31.3745    8.5232   22.9437 H   0  0  0  0  0  0  0  0  0  0  0  0
   31.0147   10.5559   22.1221 H   0  0  0  0  0  0  0  0  0  0  0  0
   30.4415   12.3987   20.6189 H   0  0  0  0  0  0  0  0  0  0  0  0
   28.2191   12.5388   19.6001 H   0  0  0  0  0  0  0  0  0  0  0  0
   27.1687    8.7718   21.4268 H   0  0  0  0  0  0  0  0  0  0  0  0
   26.7146   11.7067   18.0472 H   0  0  0  0  0  0  0  0  0  0  0  0
   24.4311   12.0410   17.2292 H   0  0  0  0  0  0  0  0  0  0  0  0
   22.5168   11.3539   18.5642 H   0  0  0  0  0  0  0  0  0  0  0  0
   20.6829    8.8741   20.6387 H   0  0  0  0  0  0  0  0  0  0  0  0
   22.1299    8.3375   19.7826 H   0  0  0  0  0  0  0  0  0  0  0  0
   21.2204    9.7423   19.1976 H   0  0  0  0  0  0  0  0  0  0  0  0
   20.6184   11.0569   21.7555 H   0  0  0  0  0  0  0  0  0  0  0  0
   21.5130   12.0744   20.6156 H   0  0  0  0  0  0  0  0  0  0  0  0
   23.2965   12.9264   24.7436 H   0  0  0  0  0  0  0  0  0  0  0  0
   24.4903   11.6303   24.8331 H   0  0  0  0  0  0  0  0  0  0  0  0
   22.9101   11.4802   25.6787 H   0  0  0  0  0  0  0  0  0  0  0  0
   23.1235    7.9938   24.3210 H   0  0  0  0  0  0  0  0  0  0  0  0
   22.8035    8.2922   22.0830 H   0  0  0  0  0  0  0  0  0  0  0  0
   25.1730    9.9494   21.6671 H   0  0  0  0  0  0  0  0  0  0  0  0
   23.2331    9.3479   25.3801 H   0  0  0  0  0  0  0  0  0  0  0  0
  1  2  1  0  0  0  0
  1 25  1  0  0  0  0
  1 26  1  0  0  0  0
  1 27  1  0  0  0  0
  2  3  1  0  0  0  0
  3  4  2  0  0  0  0
  3  8  1  0  0  0  0
  4  5  1  0  0  0  0
  4 28  1  0  0  0  0
  5  6  2  0  0  0  0
  5 29  1  0  0  0  0
  6  7  1  0  0  0  0
  6 30  1  0  0  0  0
  7  8  2  0  0  0  0
  7  9  1  0  0  0  0
  8 31  1  0  0  0  0
  9 10  2  0  0  0  0
  9 24  1  0  0  0  0
 10 11  1  0  0  0  0
 10 32  1  0  0  0  0
 11 12  2  0  0  0  0
 11 33  1  0  0  0  0
 12 13  1  0  0  0  0
 12 34  1  0  0  0  0
 13 24  2  0  0  0  0
 14 13  1  6  0  0  0
 14 15  1  0  0  0  0
 14 16  1  0  0  0  0
 14 23  1  0  0  0  0
 15 35  1  0  0  0  0
 15 36  1  0  0  0  0
 15 37  1  0  0  0  0
 16 17  1  0  0  0  0
 16 38  1  0  0  0  0
 16 39  1  0  0  0  0
 17 18  2  0  0  0  0
 17 19  1  0  0  0  0
 19 20  1  0  0  0  0
 19 21  1  0  0  0  0
 20 40  1  0  0  0  0
 20 41  1  0  0  0  0
 20 42  1  0  0  0  0
 21 22  2  0  0  0  0
 21 23  1  0  0  0  0
 22 43  1  0  0  0  0
 22 46  1  0  0  0  0
 23 44  1  0  0  0  0
 24 45  1  0  0  0  0
M  END
$$$$
