HAJ
 OpenBabel04111918263D

 38 42  0  0  0  0  0  0  0  0999 V2000
   -1.1330    9.3068   28.2128 F   0  0  0  0  0  0  0  0  0  0  0  0
    0.1462    8.9857   28.0098 C   0  0  0  0  0  0  0  0  0  0  0  0
    0.7968    8.2027   28.9682 C   0  0  0  0  0  0  0  0  0  0  0  0
    2.1350    7.8717   28.7909 C   0  0  0  0  0  0  0  0  0  0  0  0
    2.8031    8.3121   27.6440 C   0  0  0  0  0  0  0  0  0  0  0  0
    2.1639    9.0836   26.6737 C   0  0  0  0  0  0  0  0  0  0  0  0
    0.8155    9.4157   26.8880 C   0  0  0  0  0  0  0  0  0  0  0  0
    2.8660    9.4606   25.5919 N   0  0  0  0  0  0  0  0  0  0  0  0
    2.3002   10.2035   24.6166 C   0  0  0  0  0  0  0  0  0  0  0  0
    0.9089   10.5870   24.7950 N   0  3  0  0  0  0  0  0  0  0  0  0
    0.1648   11.3309   23.9517 N   0  0  0  0  0  0  0  0  0  0  0  0
   -0.9696   11.3531   24.5458 C   0  0  0  0  0  0  0  0  0  0  0  0
   -2.0261   11.9825   24.0458 N   0  0  0  0  0  0  0  0  0  0  0  0
   -0.9934   10.6733   25.7283 N   0  3  0  0  0  0  0  0  0  0  0  0
    0.2371   10.1935   25.8808 C   0  0  0  0  0  0  0  0  0  0  0  0
    3.0909   10.6950   23.4507 C   0  0  0  0  0  0  0  0  0  0  0  0
    3.9726   11.8568   23.8430 C   0  0  0  0  0  0  0  0  0  0  0  0
    5.3696   11.7506   23.6902 C   0  0  0  0  0  0  0  0  0  0  0  0
    6.2112   12.8154   24.0537 C   0  0  0  0  0  0  0  0  0  0  0  0
    5.6403   13.9664   24.5791 C   0  0  0  0  0  0  0  0  0  0  0  0
    4.2811   14.0734   24.7452 C   0  0  0  0  0  0  0  0  0  0  0  0
    3.4234   13.0387   24.3845 C   0  0  0  0  0  0  0  0  0  0  0  0
    6.2946   15.0933   24.9924 O   0  0  0  0  0  0  0  0  0  0  0  0
    5.2041   15.9182   25.4718 C   0  0  0  0  0  0  0  0  0  0  0  0
    3.9178   15.2731   25.2844 O   0  0  0  0  0  0  0  0  0  0  0  0
    0.2594    7.8549   29.8515 H   0  0  0  0  0  0  0  0  0  0  0  0
    2.6605    7.2762   29.5377 H   0  0  0  0  0  0  0  0  0  0  0  0
    3.8518    8.0373   27.5141 H   0  0  0  0  0  0  0  0  0  0  0  0
   -1.9887   12.4911   23.1566 H   0  0  0  0  0  0  0  0  0  0  0  0
   -2.9409   12.0188   24.4802 H   0  0  0  0  0  0  0  0  0  0  0  0
    2.4187   10.9999   22.6341 H   0  0  0  0  0  0  0  0  0  0  0  0
    3.6779    9.8495   23.0745 H   0  0  0  0  0  0  0  0  0  0  0  0
    5.8021   10.8322   23.2906 H   0  0  0  0  0  0  0  0  0  0  0  0
    7.2856   12.7243   23.9227 H   0  0  0  0  0  0  0  0  0  0  0  0
    2.3521   13.1393   24.5246 H   0  0  0  0  0  0  0  0  0  0  0  0
    5.2109   16.8929   24.9544 H   0  0  0  0  0  0  0  0  0  0  0  0
    5.3488   16.1456   26.5424 H   0  0  0  0  0  0  0  0  0  0  0  0
   -1.7802   10.5634   26.3514 H   0  0  0  0  0  0  0  0  0  0  0  0
  1  2  1  0  0  0  0
  2  3  2  0  0  0  0
  2  7  1  0  0  0  0
  3  4  1  0  0  0  0
  3 26  1  0  0  0  0
  4  5  2  0  0  0  0
  4 27  1  0  0  0  0
  5  6  1  0  0  0  0
  5 28  1  0  0  0  0
  6  7  2  0  0  0  0
  6  8  1  0  0  0  0
  7 15  1  0  0  0  0
  8  9  2  0  0  0  0
  9 10  1  0  0  0  0
  9 16  1  0  0  0  0
 10 11  1  0  0  0  0
 10 15  2  0  0  0  0
 11 12  1  0  0  0  0
 12 13  1  0  0  0  0
 12 14  2  0  0  0  0
 13 29  1  0  0  0  0
 13 30  1  0  0  0  0
 14 15  1  0  0  0  0
 14 38  1  0  0  0  0
 16 17  1  0  0  0  0
 16 31  1  0  0  0  0
 16 32  1  0  0  0  0
 17 18  2  0  0  0  0
 17 22  1  0  0  0  0
 18 19  1  0  0  0  0
 18 33  1  0  0  0  0
 19 20  2  0  0  0  0
 19 34  1  0  0  0  0
 20 21  1  0  0  0  0
 20 23  1  0  0  0  0
 21 22  2  0  0  0  0
 21 25  1  0  0  0  0
 22 35  1  0  0  0  0
 23 24  1  0  0  0  0
 24 25  1  0  0  0  0
 24 36  1  0  0  0  0
 24 37  1  0  0  0  0
M  CHG  2  10   1  14   1
M  END
$$$$
