HCC
 OpenBabel04111921443D

 31 32  0  0  0  0  0  0  0  0999 V2000
   -3.6070   26.5957  -30.2103 C   0  0  0  0  0  0  0  0  0  0  0  0
   -2.7769   26.2548  -31.2711 C   0  0  0  0  0  0  0  0  0  0  0  0
   -2.0951   25.0333  -31.2637 C   0  0  0  0  0  0  0  0  0  0  0  0
   -2.2442   24.1454  -30.1877 C   0  0  0  0  0  0  0  0  0  0  0  0
   -3.1037   24.5140  -29.1302 C   0  0  0  0  0  0  0  0  0  0  0  0
   -3.7838   25.7338  -29.1365 C   0  0  0  0  0  0  0  0  0  0  0  0
   -1.5591   22.8208  -30.1265 C   0  0  0  0  0  0  0  0  0  0  0  0
   -0.5338   22.4397  -31.1300 C   0  0  0  0  0  0  0  0  0  0  0  0
   -0.0882   21.1703  -31.1570 C   0  0  0  0  0  0  0  0  0  0  0  0
   -3.3264   23.7097  -28.0383 O   0  0  0  0  0  0  0  0  0  0  0  0
    0.9413   20.6705  -32.0807 C   0  0  0  0  0  0  0  0  0  0  0  0
    1.2582   21.3380  -33.2722 C   0  0  0  0  0  0  0  0  0  0  0  0
    2.2381   20.8502  -34.1378 C   0  0  0  0  0  0  0  0  0  0  0  0
    2.8976   19.6691  -33.8206 C   0  0  0  0  0  0  0  0  0  0  0  0
    2.5884   18.9755  -32.6575 C   0  0  0  0  0  0  0  0  0  0  0  0
    1.6081   19.4712  -31.7902 C   0  0  0  0  0  0  0  0  0  0  0  0
   -1.8502   22.0471  -29.2075 O   0  0  0  0  0  0  0  0  0  0  0  0
    3.8568   19.1589  -34.6434 O   0  0  0  0  0  0  0  0  0  0  0  0
   -4.2395   27.8007  -30.2673 O   0  0  0  0  0  0  0  0  0  0  0  0
   -2.6612   26.9459  -32.1021 H   0  0  0  0  0  0  0  0  0  0  0  0
   -1.4674   24.8081  -32.1215 H   0  0  0  0  0  0  0  0  0  0  0  0
   -4.4557   25.9785  -28.3186 H   0  0  0  0  0  0  0  0  0  0  0  0
   -0.1447   23.1936  -31.7962 H   0  0  0  0  0  0  0  0  0  0  0  0
   -0.4884   20.4443  -30.4486 H   0  0  0  0  0  0  0  0  0  0  0  0
   -2.8277   22.8702  -28.1770 H   0  0  0  0  0  0  0  0  0  0  0  0
    0.7466   22.2531  -33.5524 H   0  0  0  0  0  0  0  0  0  0  0  0
    2.4608   21.3994  -35.0436 H   0  0  0  0  0  0  0  0  0  0  0  0
    3.1062   18.0493  -32.4231 H   0  0  0  0  0  0  0  0  0  0  0  0
    1.3819   18.9129  -30.8839 H   0  0  0  0  0  0  0  0  0  0  0  0
    3.9535   19.7479  -35.4099 H   0  0  0  0  0  0  0  0  0  0  0  0
   -4.0932   28.2504  -29.4167 H   0  0  0  0  0  0  0  0  0  0  0  0
  1  2  2  0  0  0  0
  1  6  1  0  0  0  0
  1 19  1  0  0  0  0
  2  3  1  0  0  0  0
  2 20  1  0  0  0  0
  3  4  2  0  0  0  0
  3 21  1  0  0  0  0
  4  5  1  0  0  0  0
  4  7  1  0  0  0  0
  5  6  2  0  0  0  0
  5 10  1  0  0  0  0
  6 22  1  0  0  0  0
  7  8  1  0  0  0  0
  7 17  2  0  0  0  0
  8  9  2  0  0  0  0
  8 23  1  0  0  0  0
  9 11  1  0  0  0  0
  9 24  1  0  0  0  0
 10 25  1  0  0  0  0
 11 12  2  0  0  0  0
 11 16  1  0  0  0  0
 12 13  1  0  0  0  0
 12 26  1  0  0  0  0
 13 14  2  0  0  0  0
 13 27  1  0  0  0  0
 14 15  1  0  0  0  0
 14 18  1  0  0  0  0
 15 16  2  0  0  0  0
 15 28  1  0  0  0  0
 16 29  1  0  0  0  0
 18 30  1  0  0  0  0
 19 31  1  0  0  0  0
M  END
$$$$
