HCY
 OpenBabel04111921003D

 56 59  0  0  1  0  0  0  0  0999 V2000
    3.7093   32.2104   -3.7564 C   0  0  0  0  0  0  0  0  0  0  0  0
    3.9198   32.6688   -2.3382 C   0  0  0  0  0  0  0  0  0  0  0  0
    5.0309   33.6793   -2.2216 C   0  0  0  0  0  0  0  0  0  0  0  0
    5.4065   34.5152   -3.3802 C   0  0  0  0  0  0  0  0  0  0  0  0
    4.8126   34.3637   -4.5533 C   0  0  0  0  0  0  0  0  0  0  0  0
    5.1828   35.3272   -5.6523 C   0  0  0  0  0  0  0  0  0  0  0  0
    5.5113   34.6146   -6.9454 C   0  0  0  0  0  0  0  0  0  0  0  0
    4.5009   33.5259   -7.3107 C   0  0  2  0  0  0  0  0  0  0  0  0
    4.2387   32.5495   -6.1467 C   0  0  1  0  0  0  0  0  0  0  0  0
    3.7835   33.2937   -4.8609 C   0  0  1  0  0  0  0  0  0  0  0  0
    3.9111   30.6353   -7.8326 C   0  0  0  0  0  0  0  0  0  0  0  0
    3.3881   31.3045   -6.5454 C   0  0  2  0  0  0  0  0  0  0  0  0
    4.1893   31.6216   -8.9867 C   0  0  1  0  0  0  0  0  0  0  0  0
    5.1039   32.7268   -8.4532 C   0  0  1  0  0  0  0  0  0  0  0  0
    5.4868   33.5192   -9.6919 C   0  0  0  0  0  0  0  0  0  0  0  0
    5.5138   32.4840  -10.8142 C   0  0  0  0  0  0  0  0  0  0  0  0
    5.0517   31.1502  -10.1866 C   0  0  2  0  0  0  0  0  0  0  0  0
    2.8527   32.1926   -9.4981 C   0  0  0  0  0  0  0  0  0  0  0  0
    2.4333   33.9926   -5.0096 C   0  0  0  0  0  0  0  0  0  0  0  0
    4.3311   30.3125  -11.2410 C   0  0  0  0  0  0  0  0  0  0  0  0
    3.9594   28.9040  -10.8647 C   0  0  0  0  0  0  0  0  0  0  0  0
    5.5990   33.8792   -1.1592 O   0  0  0  0  0  0  0  0  0  0  0  0
    1.9946   31.5797   -6.6698 O   0  0  0  0  0  0  0  0  0  0  0  0
    6.2427   30.4798   -9.7607 O   0  0  0  0  0  0  0  0  0  0  0  0
    4.0028   30.7694  -12.3581 O   0  0  0  0  0  0  0  0  0  0  0  0
    3.2185   28.2564  -11.8892 O   0  0  0  0  0  0  0  0  0  0  0  0
    2.7456   31.6998   -3.8069 H   0  0  0  0  0  0  0  0  0  0  0  0
    4.4822   31.4525   -3.9485 H   0  0  0  0  0  0  0  0  0  0  0  0
    4.1959   31.8118   -1.7255 H   0  0  0  0  0  0  0  0  0  0  0  0
    3.0035   33.1027   -1.9267 H   0  0  0  0  0  0  0  0  0  0  0  0
    6.1469   35.2745   -3.2028 H   0  0  0  0  0  0  0  0  0  0  0  0
    6.0623   35.9197   -5.3635 H   0  0  0  0  0  0  0  0  0  0  0  0
    4.3655   36.0326   -5.8163 H   0  0  0  0  0  0  0  0  0  0  0  0
    6.5146   34.1816   -6.8683 H   0  0  0  0  0  0  0  0  0  0  0  0
    5.5455   35.3606   -7.7481 H   0  0  0  0  0  0  0  0  0  0  0  0
    3.5611   34.0025   -7.6133 H   0  0  0  0  0  0  0  0  0  0  0  0
    5.2269   32.1228   -5.9043 H   0  0  0  0  0  0  0  0  0  0  0  0
    3.1709   29.9013   -8.1537 H   0  0  0  0  0  0  0  0  0  0  0  0
    4.8345   30.1129   -7.5702 H   0  0  0  0  0  0  0  0  0  0  0  0
    3.4623   30.5645   -5.7426 H   0  0  0  0  0  0  0  0  0  0  0  0
    6.0276   32.2664   -8.0649 H   0  0  0  0  0  0  0  0  0  0  0  0
    6.4602   34.0012   -9.5749 H   0  0  0  0  0  0  0  0  0  0  0  0
    4.7457   34.3009   -9.9026 H   0  0  0  0  0  0  0  0  0  0  0  0
    6.5273   32.3921  -11.2249 H   0  0  0  0  0  0  0  0  0  0  0  0
    4.8490   32.8168  -11.6142 H   0  0  0  0  0  0  0  0  0  0  0  0
    2.2180   32.5533   -8.6910 H   0  0  0  0  0  0  0  0  0  0  0  0
    2.2969   31.4306  -10.0467 H   0  0  0  0  0  0  0  0  0  0  0  0
    2.9995   33.0455  -10.1630 H   0  0  0  0  0  0  0  0  0  0  0  0
    2.1422   34.4924   -4.0813 H   0  0  0  0  0  0  0  0  0  0  0  0
    1.6331   33.2985   -5.2605 H   0  0  0  0  0  0  0  0  0  0  0  0
    2.4645   34.7501   -5.7995 H   0  0  0  0  0  0  0  0  0  0  0  0
    3.3360   28.9241   -9.9734 H   0  0  0  0  0  0  0  0  0  0  0  0
    4.8704   28.3326  -10.6695 H   0  0  0  0  0  0  0  0  0  0  0  0
    1.5128   30.7448   -6.8132 H   0  0  0  0  0  0  0  0  0  0  0  0
    6.0098   29.6387   -9.3596 H   0  0  0  0  0  0  0  0  0  0  0  0
    2.4759   28.8360  -12.1048 H   0  0  0  0  0  0  0  0  0  0  0  0
  1  2  1  0  0  0  0
  1 10  1  0  0  0  0
  1 27  1  0  0  0  0
  1 28  1  0  0  0  0
  2  3  1  0  0  0  0
  2 29  1  0  0  0  0
  2 30  1  0  0  0  0
  3  4  1  0  0  0  0
  3 22  2  0  0  0  0
  4  5  2  0  0  0  0
  4 31  1  0  0  0  0
  5  6  1  0  0  0  0
  5 10  1  0  0  0  0
  6  7  1  0  0  0  0
  6 32  1  0  0  0  0
  6 33  1  0  0  0  0
  7  8  1  0  0  0  0
  7 34  1  0  0  0  0
  7 35  1  0  0  0  0
  8  9  1  0  0  0  0
  8 14  1  0  0  0  0
  8 36  1  6  0  0  0
  9 10  1  0  0  0  0
  9 12  1  0  0  0  0
  9 37  1  1  0  0  0
 10 19  1  6  0  0  0
 11 12  1  0  0  0  0
 11 13  1  0  0  0  0
 11 38  1  0  0  0  0
 11 39  1  0  0  0  0
 12 23  1  0  0  0  0
 12 40  1  1  0  0  0
 13 14  1  0  0  0  0
 13 17  1  0  0  0  0
 13 18  1  6  0  0  0
 14 15  1  0  0  0  0
 14 41  1  1  0  0  0
 15 16  1  0  0  0  0
 15 42  1  0  0  0  0
 15 43  1  0  0  0  0
 16 17  1  0  0  0  0
 16 44  1  0  0  0  0
 16 45  1  0  0  0  0
 17 20  1  6  0  0  0
 17 24  1  0  0  0  0
 18 46  1  0  0  0  0
 18 47  1  0  0  0  0
 18 48  1  0  0  0  0
 19 49  1  0  0  0  0
 19 50  1  0  0  0  0
 19 51  1  0  0  0  0
 20 21  1  0  0  0  0
 20 25  2  0  0  0  0
 21 26  1  0  0  0  0
 21 52  1  0  0  0  0
 21 53  1  0  0  0  0
 23 54  1  0  0  0  0
 24 55  1  0  0  0  0
 26 56  1  0  0  0  0
M  END
$$$$
