HIS
 OpenBabel04111920523D

 20 20  0  0  1  0  0  0  0  0999 V2000
  -76.9805   -9.2781   40.0479 N   0  3  0  0  0  0  0  0  0  0  0  0
  -77.7186   -7.9557   40.1843 C   0  0  2  0  0  0  0  0  0  0  0  0
  -77.1268   -7.0632   41.3025 C   0  0  0  0  0  0  0  0  0  0  0  0
  -76.2145   -7.6576   41.9516 O   0  0  0  0  0  0  0  0  0  0  0  0
  -79.2006   -8.2263   40.4415 C   0  0  0  0  0  0  0  0  0  0  0  0
  -79.4786   -8.8957   41.7461 C   0  0  0  0  0  0  0  0  0  0  0  0
  -78.6197   -9.8355   42.2619 N   0  0  0  0  0  0  0  0  0  0  0  0
  -80.5505   -8.7011   42.5923 C   0  0  0  0  0  0  0  0  0  0  0  0
  -79.1000  -10.1184   43.4657 C   0  0  0  0  0  0  0  0  0  0  0  0
  -80.2827   -9.4773   43.6845 N   0  3  0  0  0  0  0  0  0  0  0  0
  -77.5354   -5.8774   41.3284 O   0  0  0  0  0  0  0  0  0  0  0  0
  -77.3358   -9.9026   39.3362 H   0  0  0  0  0  0  0  0  0  0  0  0
  -75.9857   -9.0670   39.9819 H   0  0  0  0  0  0  0  0  0  0  0  0
  -77.5853   -7.4543   39.2205 H   0  0  0  0  0  0  0  0  0  0  0  0
  -79.5930   -8.8746   39.6478 H   0  0  0  0  0  0  0  0  0  0  0  0
  -79.7582   -7.2855   40.3860 H   0  0  0  0  0  0  0  0  0  0  0  0
  -81.4302   -8.0742   42.5269 H   0  0  0  0  0  0  0  0  0  0  0  0
  -78.6407  -10.7698   44.1963 H   0  0  0  0  0  0  0  0  0  0  0  0
  -80.8498   -9.5465   44.5236 H   0  0  0  0  0  0  0  0  0  0  0  0
  -77.0863   -9.6991   40.9986 H   0  0  0  0  0  0  0  0  0  0  0  0
  1  2  1  0  0  0  0
  1 12  1  0  0  0  0
  1 13  1  0  0  0  0
  1 20  1  0  0  0  0
  2  3  1  0  0  0  0
  2  5  1  0  0  0  0
  2 14  1  6  0  0  0
  3  4  2  0  0  0  0
  3 11  1  0  0  0  0
  5  6  1  0  0  0  0
  5 15  1  0  0  0  0
  5 16  1  0  0  0  0
  6  7  1  0  0  0  0
  6  8  2  0  0  0  0
  7  9  1  0  0  0  0
  8 10  1  0  0  0  0
  8 17  1  0  0  0  0
  9 10  2  0  0  0  0
  9 18  1  0  0  0  0
 10 19  1  0  0  0  0
M  CHG  2   1   1  10   1
M  END
$$$$
