HNR
 OpenBabel04111917463D

 45 46  0  0  1  0  0  0  0  0999 V2000
   37.7852    7.8278   12.3820 C   0  0  0  0  0  0  0  0  0  0  0  0
   38.6039    6.6642   11.8484 C   0  0  0  0  0  0  0  0  0  0  0  0
   37.9515    6.0234   10.6289 C   0  0  0  0  0  0  0  0  0  0  0  0
   38.8537    4.9454   10.0143 C   0  0  0  0  0  0  0  0  0  0  0  0
   38.1111    3.6641    9.9807 N   0  0  0  0  0  0  0  0  0  0  0  0
   37.1967    3.4649    9.0347 C   0  0  0  0  0  0  0  0  0  0  0  0
   36.9361    4.3257    8.0528 N   0  0  0  0  0  0  0  0  0  0  0  0
   38.3748    2.7589   11.0705 C   0  0  0  0  0  0  0  0  0  0  0  0
   39.1785    3.0433   11.9194 O   0  0  0  0  0  0  0  0  0  0  0  0
   37.6558    1.6037   11.0335 N   0  0  0  0  0  0  0  0  0  0  0  0
   36.6802    1.2617   10.1399 C   0  0  0  0  0  0  0  0  0  0  0  0
   36.0868    0.1935   10.2427 O   0  0  0  0  0  0  0  0  0  0  0  0
   36.2556    2.3254    9.2032 C   0  0  2  0  0  0  0  0  0  0  0  0
   35.4073    2.0553    8.0361 N   0  0  0  0  0  0  0  0  0  0  0  0
   35.7203    0.9129    7.1665 C   0  0  0  0  0  0  0  0  0  0  0  0
   33.8134    2.6076    8.1923 S   0  0  0  0  0  0  0  0  0  0  0  0
   34.0022    4.0098    8.5164 O   0  0  0  0  0  0  0  0  0  0  0  0
   33.0838    2.1881    7.0350 O   0  0  0  0  0  0  0  0  0  0  0  0
   33.1513    1.8193    9.6597 C   0  0  0  0  0  0  0  0  0  0  0  0
   33.4253    2.3263   10.9423 C   0  0  0  0  0  0  0  0  0  0  0  0
   32.8445    1.7399   12.0647 C   0  0  0  0  0  0  0  0  0  0  0  0
   31.9605    0.6772   11.9066 C   0  0  0  0  0  0  0  0  0  0  0  0
   31.6713    0.1907   10.6298 C   0  0  0  0  0  0  0  0  0  0  0  0
   32.2593    0.7610    9.5035 C   0  0  0  0  0  0  0  0  0  0  0  0
   38.2768    8.2644   13.2569 H   0  0  0  0  0  0  0  0  0  0  0  0
   36.7840    7.5015   12.6804 H   0  0  0  0  0  0  0  0  0  0  0  0
   37.6805    8.6123   11.6256 H   0  0  0  0  0  0  0  0  0  0  0  0
   38.7168    5.9104   12.6358 H   0  0  0  0  0  0  0  0  0  0  0  0
   39.6055    7.0218   11.5848 H   0  0  0  0  0  0  0  0  0  0  0  0
   37.7495    6.7959    9.8756 H   0  0  0  0  0  0  0  0  0  0  0  0
   36.9788    5.6059   10.9219 H   0  0  0  0  0  0  0  0  0  0  0  0
   39.7979    4.8262   10.5492 H   0  0  0  0  0  0  0  0  0  0  0  0
   39.1256    5.2180    8.9890 H   0  0  0  0  0  0  0  0  0  0  0  0
   36.1513    4.1643    7.4165 H   0  0  0  0  0  0  0  0  0  0  0  0
   37.8195    0.9464   11.7854 H   0  0  0  0  0  0  0  0  0  0  0  0
   35.5948    2.8416    9.8870 H   0  0  0  0  0  0  0  0  0  0  0  0
   36.7727    0.6250    7.2562 H   0  0  0  0  0  0  0  0  0  0  0  0
   35.5767    1.2429    6.1297 H   0  0  0  0  0  0  0  0  0  0  0  0
   35.0986    0.0359    7.3604 H   0  0  0  0  0  0  0  0  0  0  0  0
   34.0794    3.1785   11.1031 H   0  0  0  0  0  0  0  0  0  0  0  0
   33.0650    2.1164   13.0625 H   0  0  0  0  0  0  0  0  0  0  0  0
   31.4830    0.2307   12.7769 H   0  0  0  0  0  0  0  0  0  0  0  0
   30.9751   -0.6358   10.5114 H   0  0  0  0  0  0  0  0  0  0  0  0
   32.0036    0.3942    8.5150 H   0  0  0  0  0  0  0  0  0  0  0  0
   37.3897    5.2220    7.9488 H   0  0  0  0  0  0  0  0  0  0  0  0
  1  2  1  0  0  0  0
  1 25  1  0  0  0  0
  1 26  1  0  0  0  0
  1 27  1  0  0  0  0
  2  3  1  0  0  0  0
  2 28  1  0  0  0  0
  2 29  1  0  0  0  0
  3  4  1  0  0  0  0
  3 30  1  0  0  0  0
  3 31  1  0  0  0  0
  4  5  1  0  0  0  0
  4 32  1  0  0  0  0
  4 33  1  0  0  0  0
  5  6  1  0  0  0  0
  5  8  1  0  0  0  0
  6  7  2  0  0  0  0
  6 13  1  0  0  0  0
  7 34  1  0  0  0  0
  7 45  1  0  0  0  0
  8  9  2  0  0  0  0
  8 10  1  0  0  0  0
 10 11  1  0  0  0  0
 10 35  1  0  0  0  0
 11 12  2  0  0  0  0
 11 13  1  0  0  0  0
 13 14  1  0  0  0  0
 13 36  1  1  0  0  0
 14 15  1  0  0  0  0
 14 16  1  0  0  0  0
 15 37  1  0  0  0  0
 15 38  1  0  0  0  0
 15 39  1  0  0  0  0
 16 17  2  0  0  0  0
 16 18  2  0  0  0  0
 16 19  1  0  0  0  0
 19 20  2  0  0  0  0
 19 24  1  0  0  0  0
 20 21  1  0  0  0  0
 20 40  1  0  0  0  0
 21 22  2  0  0  0  0
 21 41  1  0  0  0  0
 22 23  1  0  0  0  0
 22 42  1  0  0  0  0
 23 24  2  0  0  0  0
 23 43  1  0  0  0  0
 24 44  1  0  0  0  0
M  END
$$$$
