HRI
 OpenBabel04111919133D

 19 18  0  0  1  0  0  0  0  0999 V2000
   -8.7154  -31.0882   14.6613 C   0  0  2  0  0  0  0  0  0  0  0  0
   -8.3273  -31.9084   15.9010 C   0  0  0  0  0  0  0  0  0  0  0  0
   -9.4142  -32.2196   16.9602 C   0  0  0  0  0  0  0  0  0  0  0  0
  -10.7371  -31.4754   16.8229 C   0  0  0  0  0  0  0  0  0  0  0  0
   -8.8524  -32.0853   18.3808 C   0  0  0  0  0  0  0  0  0  0  0  0
   -8.0843  -31.6032   13.3477 C   0  0  0  0  0  0  0  0  0  0  0  0
   -8.7033  -31.2703   12.2843 O   0  0  0  0  0  0  0  0  0  0  0  0
   -7.0736  -32.3594   13.4559 O   0  0  0  0  0  0  0  0  0  0  0  0
   -8.2274  -29.3620   14.9041 Cl  0  0  0  0  0  0  0  0  0  0  0  0
   -9.7964  -31.0635   14.5054 H   0  0  0  0  0  0  0  0  0  0  0  0
   -7.4472  -31.4573   16.3821 H   0  0  0  0  0  0  0  0  0  0  0  0
   -7.9764  -32.8965   15.5779 H   0  0  0  0  0  0  0  0  0  0  0  0
   -9.6591  -33.2844   16.8395 H   0  0  0  0  0  0  0  0  0  0  0  0
  -11.4017  -31.7009   17.6626 H   0  0  0  0  0  0  0  0  0  0  0  0
  -11.2609  -31.7927   15.9164 H   0  0  0  0  0  0  0  0  0  0  0  0
  -10.5996  -30.3879   16.7868 H   0  0  0  0  0  0  0  0  0  0  0  0
   -7.8754  -32.5734   18.4633 H   0  0  0  0  0  0  0  0  0  0  0  0
   -9.5210  -32.5711   19.0984 H   0  0  0  0  0  0  0  0  0  0  0  0
   -8.7402  -31.0367   18.6757 H   0  0  0  0  0  0  0  0  0  0  0  0
  1  2  1  0  0  0  0
  1  6  1  0  0  0  0
  1  9  1  0  0  0  0
  1 10  1  6  0  0  0
  2  3  1  0  0  0  0
  2 11  1  0  0  0  0
  2 12  1  0  0  0  0
  3  4  1  0  0  0  0
  3  5  1  0  0  0  0
  3 13  1  0  0  0  0
  4 14  1  0  0  0  0
  4 15  1  0  0  0  0
  4 16  1  0  0  0  0
  5 17  1  0  0  0  0
  5 18  1  0  0  0  0
  5 19  1  0  0  0  0
  6  7  2  0  0  0  0
  6  8  1  0  0  0  0
M  END
$$$$
