HSX
 OpenBabel04111920033D

 23 23  0  0  1  0  0  0  0  0999 V2000
  -34.4934  -20.3090   -5.9179 C   0  0  1  0  0  0  0  0  0  0  0  0
  -34.8700  -21.0126   -4.7359 O   0  0  0  0  0  0  0  0  0  0  0  0
  -34.2468  -18.9014   -5.4117 C   0  0  2  0  0  0  0  0  0  0  0  0
  -33.0410  -18.7632   -4.6359 O   0  0  0  0  0  0  0  0  0  0  0  0
  -35.4837  -18.6825   -4.5799 C   0  0  2  0  0  0  0  0  0  0  0  0
  -35.2001  -17.6788   -3.6016 O   0  0  0  0  0  0  0  0  0  0  0  0
  -35.8149  -20.1213   -4.0452 C   0  0  1  0  0  0  0  0  0  0  0  0
  -37.2394  -20.5677   -4.4372 C   0  0  0  0  0  0  0  0  0  0  0  0
  -37.6103  -21.6384   -3.5944 O   0  0  0  0  0  0  0  0  0  0  0  0
  -39.2011  -21.9224   -3.3522 P   0  0  0  0  0  0  0  0  0  0  0  0
  -39.8974  -20.6026   -3.6436 O   0  0  0  0  0  0  0  0  0  0  0  0
  -39.2633  -22.3458   -1.8761 O   0  0  0  0  0  0  0  0  0  0  0  0
  -39.5268  -23.0266   -4.3363 O   0  0  0  0  0  0  0  0  0  0  0  0
  -33.3511  -20.8411   -6.5290 O   0  0  0  0  0  0  0  0  0  0  0  0
  -35.3153  -20.3328   -6.6434 H   0  0  0  0  0  0  0  0  0  0  0  0
  -34.1587  -18.1769   -6.2119 H   0  0  0  0  0  0  0  0  0  0  0  0
  -33.2115  -18.0646   -3.9723 H   0  0  0  0  0  0  0  0  0  0  0  0
  -36.3257  -18.3269   -5.1909 H   0  0  0  0  0  0  0  0  0  0  0  0
  -34.9286  -16.9000   -4.1072 H   0  0  0  0  0  0  0  0  0  0  0  0
  -35.6498  -20.2204   -2.9682 H   0  0  0  0  0  0  0  0  0  0  0  0
  -37.2762  -20.9234   -5.4710 H   0  0  0  0  0  0  0  0  0  0  0  0
  -37.9242  -19.7234   -4.3282 H   0  0  0  0  0  0  0  0  0  0  0  0
  -33.6184  -21.7270   -6.8175 H   0  0  0  0  0  0  0  0  0  0  0  0
  1  2  1  0  0  0  0
  1  3  1  0  0  0  0
  1 14  1  0  0  0  0
  1 15  1  6  0  0  0
  2  7  1  0  0  0  0
  3  4  1  0  0  0  0
  3  5  1  0  0  0  0
  3 16  1  6  0  0  0
  4 17  1  0  0  0  0
  5  6  1  0  0  0  0
  5  7  1  0  0  0  0
  5 18  1  6  0  0  0
  6 19  1  0  0  0  0
  7  8  1  0  0  0  0
  7 20  1  1  0  0  0
  8  9  1  0  0  0  0
  8 21  1  0  0  0  0
  8 22  1  0  0  0  0
  9 10  1  0  0  0  0
 10 11  2  0  0  0  0
 10 12  1  0  0  0  0
 10 13  1  0  0  0  0
 14 23  1  0  0  0  0
M  END
$$$$
