HT4
 OpenBabel04111921203D

 16 16  0  0  0  0  0  0  0  0999 V2000
   14.1734    1.3776   17.9685 O   0  0  0  0  0  0  0  0  0  0  0  0
   14.6630    2.1088   16.9201 C   0  0  0  0  0  0  0  0  0  0  0  0
   14.2290    3.4180   16.7426 C   0  0  0  0  0  0  0  0  0  0  0  0
   14.7286    4.1595   15.6750 C   0  0  0  0  0  0  0  0  0  0  0  0
   15.6581    3.5890   14.7915 C   0  0  0  0  0  0  0  0  0  0  0  0
   16.1874    4.3946   13.6492 C   0  0  0  0  0  0  0  0  0  0  0  0
   16.0874    2.2655   14.9836 C   0  0  0  0  0  0  0  0  0  0  0  0
   15.5883    1.5270   16.0486 C   0  0  0  0  0  0  0  0  0  0  0  0
   16.1014   -0.1001   16.3036 S   0  0  0  0  0  0  0  0  0  0  0  0
   14.6638    0.5314   17.8107 H   0  0  0  0  0  0  0  0  0  0  0  0
   13.5113    3.8444   17.4325 H   0  0  0  0  0  0  0  0  0  0  0  0
   14.3930    5.1827   15.5314 H   0  0  0  0  0  0  0  0  0  0  0  0
   16.9003    3.8162   13.0519 H   0  0  0  0  0  0  0  0  0  0  0  0
   16.7028    5.2831   14.0267 H   0  0  0  0  0  0  0  0  0  0  0  0
   15.3645    4.6991   12.9951 H   0  0  0  0  0  0  0  0  0  0  0  0
   16.8076    1.8183   14.3025 H   0  0  0  0  0  0  0  0  0  0  0  0
  1  2  1  0  0  0  0
  1 10  1  0  0  0  0
  2  3  2  0  0  0  0
  2  8  1  0  0  0  0
  3  4  1  0  0  0  0
  3 11  1  0  0  0  0
  4  5  2  0  0  0  0
  4 12  1  0  0  0  0
  5  6  1  0  0  0  0
  5  7  1  0  0  0  0
  6 13  1  0  0  0  0
  6 14  1  0  0  0  0
  6 15  1  0  0  0  0
  7  8  2  0  0  0  0
  7 16  1  0  0  0  0
  8  9  1  0  0  0  0
M  END
$$$$
