ICO
 OpenBabel04111917423D

 18 19  0  0  1  0  0  0  0  0999 V2000
  -16.7238   18.1423    1.2846 C   0  0  1  0  0  0  0  0  0  0  0  0
  -17.7188   18.4965    0.3478 C   0  0  0  0  0  0  0  0  0  0  0  0
  -18.0094   19.8490    0.1099 C   0  0  0  0  0  0  0  0  0  0  0  0
  -17.3269   20.8527    0.7914 C   0  0  0  0  0  0  0  0  0  0  0  0
  -16.3357   20.5361    1.7232 C   0  0  0  0  0  0  0  0  0  0  0  0
  -16.0563   19.1802    1.9462 C   0  0  2  0  0  0  0  0  0  0  0  0
  -15.1401   18.6008    2.7931 N   0  3  0  0  0  0  0  0  0  0  0  0
  -15.1999   17.2444    2.7049 C   0  0  0  0  0  0  0  0  0  0  0  0
  -16.1765   16.9178    1.7819 C   0  0  1  0  0  0  0  0  0  0  0  0
  -16.5440   15.5229    1.4177 C   0  0  0  0  0  0  0  0  0  0  0  0
  -17.4224   15.3560    0.5141 O   0  0  0  0  0  0  0  0  0  0  0  0
  -15.9402   14.5974    2.0475 O   0  0  0  0  0  0  0  0  0  0  0  0
  -18.2553   17.7146   -0.1863 H   0  0  0  0  0  0  0  0  0  0  0  0
  -18.7759   20.1090   -0.6145 H   0  0  0  0  0  0  0  0  0  0  0  0
  -17.5652   21.8954    0.5979 H   0  0  0  0  0  0  0  0  0  0  0  0
  -15.8018   21.3151    2.2551 H   0  0  0  0  0  0  0  0  0  0  0  0
  -14.5131   19.1128    3.3945 H   0  0  0  0  0  0  0  0  0  0  0  0
  -14.5581   16.5980    3.2880 H   0  0  0  0  0  0  0  0  0  0  0  0
  1  2  1  1  0  0  0
  1  6  1  0  0  0  0
  1  9  1  0  0  0  0
  2  3  1  0  0  0  0
  2 13  1  0  0  0  0
  3  4  1  0  0  0  0
  3 14  1  0  0  0  0
  4  5  1  0  0  0  0
  4 15  1  0  0  0  0
  5 16  1  0  0  0  0
  6  5  1  6  0  0  0
  6  7  1  0  0  0  0
  7  8  1  0  0  0  0
  7 17  1  0  0  0  0
  8  9  1  0  0  0  0
  8 18  1  0  0  0  0
  9 10  1  1  0  0  0
 10 11  2  0  0  0  0
 10 12  1  0  0  0  0
M  CHG  1   7   1
M  END
$$$$
