IF7
 OpenBabel04111922073D

 22 22  0  0  1  0  0  0  0  0999 V2000
   75.8985   90.8357   19.6537 O   0  0  0  0  0  0  0  0  0  0  0  0
   76.9744   90.2952   19.4379 C   0  0  0  0  0  0  0  0  0  0  0  0
   78.0919   90.3051   20.4926 C   0  0  1  0  0  0  0  0  0  0  0  0
   77.5462   90.0796   21.7926 O   0  0  0  0  0  0  0  0  0  0  0  0
   79.1747   89.2701   20.1992 C   0  0  1  0  0  0  0  0  0  0  0  0
   78.7412   87.9499   20.5314 O   0  0  0  0  0  0  0  0  0  0  0  0
   79.6017   89.3435   18.7351 C   0  0  1  0  0  0  0  0  0  0  0  0
   80.7179   88.3508   18.4414 C   0  0  0  0  0  0  0  0  0  0  0  0
   81.2012   88.5318   17.1180 O   0  0  0  0  0  0  0  0  0  0  0  0
   78.4079   89.0431   17.8329 C   0  0  0  0  0  0  0  0  0  0  0  0
   77.2296   89.7673   18.2102 N   0  0  0  0  0  0  0  0  0  0  0  0
   78.5300   91.3158   20.4670 H   0  0  0  0  0  0  0  0  0  0  0  0
   78.2537   90.1697   22.4480 H   0  0  0  0  0  0  0  0  0  0  0  0
   80.0350   89.4761   20.8451 H   0  0  0  0  0  0  0  0  0  0  0  0
   78.4164   87.9741   21.4518 H   0  0  0  0  0  0  0  0  0  0  0  0
   79.9537   90.3624   18.5149 H   0  0  0  0  0  0  0  0  0  0  0  0
   80.3587   87.3209   18.5336 H   0  0  0  0  0  0  0  0  0  0  0  0
   81.5496   88.4879   19.1388 H   0  0  0  0  0  0  0  0  0  0  0  0
   81.5560   89.4220   17.0413 H   0  0  0  0  0  0  0  0  0  0  0  0
   78.1738   87.9721   17.8220 H   0  0  0  0  0  0  0  0  0  0  0  0
   78.6311   89.3393   16.8024 H   0  0  0  0  0  0  0  0  0  0  0  0
   76.4201   89.7692   17.5979 H   0  0  0  0  0  0  0  0  0  0  0  0
  1  2  2  0  0  0  0
  2  3  1  0  0  0  0
  2 11  1  0  0  0  0
  3  4  1  0  0  0  0
  3  5  1  0  0  0  0
  3 12  1  6  0  0  0
  4 13  1  0  0  0  0
  5  6  1  0  0  0  0
  5  7  1  0  0  0  0
  5 14  1  1  0  0  0
  6 15  1  0  0  0  0
  7  8  1  0  0  0  0
  7 10  1  0  0  0  0
  7 16  1  6  0  0  0
  8  9  1  0  0  0  0
  8 17  1  0  0  0  0
  8 18  1  0  0  0  0
  9 19  1  0  0  0  0
 10 11  1  0  0  0  0
 10 20  1  0  0  0  0
 10 21  1  0  0  0  0
 11 22  1  0  0  0  0
M  END
$$$$
