IFM
 OpenBabel04111919293D

 24 24  0  0  1  0  0  0  0  0999 V2000
   20.2533  -16.8716   25.9744 O   0  0  0  0  0  0  0  0  0  0  0  0
   20.6827  -17.7554   24.9399 C   0  0  1  0  0  0  0  0  0  0  0  0
   21.6863  -18.7668   25.5341 C   0  0  2  0  0  0  0  0  0  0  0  0
   22.8747  -18.0956   25.9466 O   0  0  0  0  0  0  0  0  0  0  0  0
   22.0653  -19.8018   24.4737 C   0  0  0  0  0  0  0  0  0  0  0  0
   20.8698  -20.4597   23.9016 N   0  3  0  0  0  0  0  0  0  0  0  0
   19.9028  -19.4786   23.2997 C   0  0  0  0  0  0  0  0  0  0  0  0
   19.4567  -18.5039   24.3858 C   0  0  2  0  0  0  0  0  0  0  0  0
   18.4245  -17.5582   23.7807 C   0  0  0  0  0  0  0  0  0  0  0  0
   18.9517  -16.9641   22.6087 O   0  0  0  0  0  0  0  0  0  0  0  0
   19.8262  -16.0847   25.5889 H   0  0  0  0  0  0  0  0  0  0  0  0
   21.1861  -17.1580   24.1669 H   0  0  0  0  0  0  0  0  0  0  0  0
   21.2379  -19.2417   26.4144 H   0  0  0  0  0  0  0  0  0  0  0  0
   23.4295  -18.7107   26.4594 H   0  0  0  0  0  0  0  0  0  0  0  0
   22.7026  -20.5910   24.9016 H   0  0  0  0  0  0  0  0  0  0  0  0
   22.6210  -19.3384   23.6513 H   0  0  0  0  0  0  0  0  0  0  0  0
   21.1618  -21.1193   23.1649 H   0  0  0  0  0  0  0  0  0  0  0  0
   19.0670  -20.0616   22.8992 H   0  0  0  0  0  0  0  0  0  0  0  0
   20.4307  -18.9887   22.4767 H   0  0  0  0  0  0  0  0  0  0  0  0
   18.9806  -19.0395   25.2000 H   0  0  0  0  0  0  0  0  0  0  0  0
   18.0933  -16.7819   24.4853 H   0  0  0  0  0  0  0  0  0  0  0  0
   17.5301  -18.1255   23.4923 H   0  0  0  0  0  0  0  0  0  0  0  0
   19.5915  -16.2688   22.8498 H   0  0  0  0  0  0  0  0  0  0  0  0
   20.3916  -21.0313   24.6069 H   0  0  0  0  0  0  0  0  0  0  0  0
  1  2  1  0  0  0  0
  1 11  1  0  0  0  0
  2  3  1  0  0  0  0
  2  8  1  0  0  0  0
  2 12  1  6  0  0  0
  3  4  1  0  0  0  0
  3  5  1  0  0  0  0
  3 13  1  1  0  0  0
  4 14  1  0  0  0  0
  5  6  1  0  0  0  0
  5 15  1  0  0  0  0
  5 16  1  0  0  0  0
  6  7  1  0  0  0  0
  6 17  1  0  0  0  0
  6 24  1  0  0  0  0
  7  8  1  0  0  0  0
  7 18  1  0  0  0  0
  7 19  1  0  0  0  0
  8  9  1  0  0  0  0
  8 20  1  1  0  0  0
  9 10  1  0  0  0  0
  9 21  1  0  0  0  0
  9 22  1  0  0  0  0
 10 23  1  0  0  0  0
M  CHG  1   6   1
M  END
$$$$
