ILE
 OpenBabel04111922323D

 22 21  0  0  1  0  0  0  0  0999 V2000
  -13.3616  -29.1970  -40.4429 N   0  3  0  0  0  0  0  0  0  0  0  0
  -13.0789  -30.6866  -40.4739 C   0  0  2  0  0  0  0  0  0  0  0  0
  -12.5959  -31.1210  -41.8901 C   0  0  0  0  0  0  0  0  0  0  0  0
  -12.8838  -30.2410  -42.7538 O   0  0  0  0  0  0  0  0  0  0  0  0
  -14.3508  -31.4362  -40.0288 C   0  0  2  0  0  0  0  0  0  0  0  0
  -13.9912  -32.8730  -39.6286 C   0  0  0  0  0  0  0  0  0  0  0  0
  -15.4285  -31.4335  -41.1164 C   0  0  0  0  0  0  0  0  0  0  0  0
  -15.1423  -33.6103  -38.9642 C   0  0  0  0  0  0  0  0  0  0  0  0
  -11.9602  -32.2011  -41.9580 O   0  0  0  0  0  0  0  0  0  0  0  0
  -13.6795  -28.8212  -39.5507 H   0  0  0  0  0  0  0  0  0  0  0  0
  -12.5044  -28.7396  -40.7792 H   0  0  0  0  0  0  0  0  0  0  0  0
  -12.2690  -30.8284  -39.7535 H   0  0  0  0  0  0  0  0  0  0  0  0
  -14.7633  -30.9333  -39.1408 H   0  0  0  0  0  0  0  0  0  0  0  0
  -13.1438  -32.8647  -38.9262 H   0  0  0  0  0  0  0  0  0  0  0  0
  -13.6784  -33.4503  -40.5061 H   0  0  0  0  0  0  0  0  0  0  0  0
  -15.6983  -30.4153  -41.4074 H   0  0  0  0  0  0  0  0  0  0  0  0
  -16.3455  -31.9215  -40.7729 H   0  0  0  0  0  0  0  0  0  0  0  0
  -15.0887  -31.9737  -42.0054 H   0  0  0  0  0  0  0  0  0  0  0  0
  -14.8350  -34.6265  -38.6930 H   0  0  0  0  0  0  0  0  0  0  0  0
  -16.0003  -33.6993  -39.6374 H   0  0  0  0  0  0  0  0  0  0  0  0
  -15.4627  -33.0896  -38.0570 H   0  0  0  0  0  0  0  0  0  0  0  0
  -14.0203  -29.0196  -41.2213 H   0  0  0  0  0  0  0  0  0  0  0  0
  1  2  1  0  0  0  0
  1 10  1  0  0  0  0
  1 11  1  0  0  0  0
  1 22  1  0  0  0  0
  2  3  1  0  0  0  0
  2  5  1  0  0  0  0
  2 12  1  1  0  0  0
  3  4  2  0  0  0  0
  3  9  1  0  0  0  0
  5  6  1  0  0  0  0
  5  7  1  0  0  0  0
  5 13  1  1  0  0  0
  6  8  1  0  0  0  0
  6 14  1  0  0  0  0
  6 15  1  0  0  0  0
  7 16  1  0  0  0  0
  7 17  1  0  0  0  0
  7 18  1  0  0  0  0
  8 19  1  0  0  0  0
  8 20  1  0  0  0  0
  8 21  1  0  0  0  0
M  CHG  1   1   1
M  END
$$$$
