IMN
 OpenBabel04111920003D

 40 42  0  0  0  0  0  0  0  0999 V2000
   20.6285   13.9694   61.0679 C   0  0  0  0  0  0  0  0  0  0  0  0
   20.6192   15.1287   60.2904 C   0  0  0  0  0  0  0  0  0  0  0  0
   20.5014   15.0099   58.8824 C   0  0  0  0  0  0  0  0  0  0  0  0
   20.4228   13.7427   58.2889 C   0  0  0  0  0  0  0  0  0  0  0  0
   20.4653   12.6051   59.0876 C   0  0  0  0  0  0  0  0  0  0  0  0
   20.5864   12.6978   60.4742 C   0  0  0  0  0  0  0  0  0  0  0  0
   20.2118   12.4491   56.3140 C   0  0  0  0  0  0  0  0  0  0  0  0
   20.7208   16.2456   61.1740 C   0  0  0  0  0  0  0  0  0  0  0  0
   20.7964   15.7434   62.4673 C   0  0  0  0  0  0  0  0  0  0  0  0
   20.7240   13.4783   63.5171 C   0  0  0  0  0  0  0  0  0  0  0  0
   19.8779   12.2605   63.6082 C   0  0  0  0  0  0  0  0  0  0  0  0
   20.3359   11.1469   64.3206 C   0  0  0  0  0  0  0  0  0  0  0  0
   19.5566    9.9926   64.3914 C   0  0  0  0  0  0  0  0  0  0  0  0
   18.3105    9.9590   63.7611 C   0  0  0  0  0  0  0  0  0  0  0  0
   17.8283   11.0784   63.0820 C   0  0  0  0  0  0  0  0  0  0  0  0
   18.6064   12.2357   63.0156 C   0  0  0  0  0  0  0  0  0  0  0  0
   20.7961   16.4828   63.7633 C   0  0  0  0  0  0  0  0  0  0  0  0
   20.7167   17.6879   60.7634 C   0  0  0  0  0  0  0  0  0  0  0  0
   19.3988   18.1235   60.1171 C   0  0  0  0  0  0  0  0  0  0  0  0
   20.7250   14.3565   62.4059 N   0  3  0  0  0  0  0  0  0  0  0  0
   20.3128   13.7283   56.9232 O   0  0  0  0  0  0  0  0  0  0  0  0
   21.4632   13.7407   64.4668 O   0  0  0  0  0  0  0  0  0  0  0  0
   19.5277   18.7516   59.0235 O   0  0  0  0  0  0  0  0  0  0  0  0
   18.3374   17.8649   60.7584 O   0  0  0  0  0  0  0  0  0  0  0  0
   17.3637    8.5232   63.8189 Cl  0  0  0  0  0  0  0  0  0  0  0  0
   20.4605   15.9079   58.2668 H   0  0  0  0  0  0  0  0  0  0  0  0
   20.4087   11.6050   58.6651 H   0  0  0  0  0  0  0  0  0  0  0  0
   20.6316   11.7845   61.0578 H   0  0  0  0  0  0  0  0  0  0  0  0
   20.1277   12.5848   55.2320 H   0  0  0  0  0  0  0  0  0  0  0  0
   19.3139   11.9200   56.6535 H   0  0  0  0  0  0  0  0  0  0  0  0
   21.1126   11.8545   56.5034 H   0  0  0  0  0  0  0  0  0  0  0  0
   21.3144   11.1738   64.8060 H   0  0  0  0  0  0  0  0  0  0  0  0
   19.9213    9.1268   64.9360 H   0  0  0  0  0  0  0  0  0  0  0  0
   16.8574   11.0574   62.5948 H   0  0  0  0  0  0  0  0  0  0  0  0
   18.2146   13.1047   62.4892 H   0  0  0  0  0  0  0  0  0  0  0  0
   20.7734   17.5666   63.6168 H   0  0  0  0  0  0  0  0  0  0  0  0
   21.6906   16.2557   64.3497 H   0  0  0  0  0  0  0  0  0  0  0  0
   19.9075   16.2229   64.3494 H   0  0  0  0  0  0  0  0  0  0  0  0
   21.5513   17.8576   60.0715 H   0  0  0  0  0  0  0  0  0  0  0  0
   20.8932   18.3485   61.6179 H   0  0  0  0  0  0  0  0  0  0  0  0
  1  2  2  0  0  0  0
  1  6  1  0  0  0  0
  1 20  1  0  0  0  0
  2  3  1  0  0  0  0
  2  8  1  0  0  0  0
  3  4  2  0  0  0  0
  3 26  1  0  0  0  0
  4  5  1  0  0  0  0
  4 21  1  0  0  0  0
  5  6  2  0  0  0  0
  5 27  1  0  0  0  0
  6 28  1  0  0  0  0
  7 21  1  0  0  0  0
  7 29  1  0  0  0  0
  7 30  1  0  0  0  0
  7 31  1  0  0  0  0
  8  9  2  0  0  0  0
  8 18  1  0  0  0  0
  9 17  1  0  0  0  0
  9 20  1  0  0  0  0
 10 11  1  0  0  0  0
 10 20  1  0  0  0  0
 10 22  2  0  0  0  0
 11 12  2  0  0  0  0
 11 16  1  0  0  0  0
 12 13  1  0  0  0  0
 12 32  1  0  0  0  0
 13 14  2  0  0  0  0
 13 33  1  0  0  0  0
 14 15  1  0  0  0  0
 14 25  1  0  0  0  0
 15 16  2  0  0  0  0
 15 34  1  0  0  0  0
 16 35  1  0  0  0  0
 17 36  1  0  0  0  0
 17 37  1  0  0  0  0
 17 38  1  0  0  0  0
 18 19  1  0  0  0  0
 18 39  1  0  0  0  0
 18 40  1  0  0  0  0
 19 23  2  0  0  0  0
 19 24  1  0  0  0  0
M  CHG  1  20   1
M  END
$$$$
