IOP
 OpenBabel04111918443D

 24 25  0  0  1  0  0  0  0  0999 V2000
   -8.8245   21.7484  -25.2281 C   0  0  0  0  0  0  0  0  0  0  0  0
   -7.7547   21.1034  -25.4431 O   0  0  0  0  0  0  0  0  0  0  0  0
   -9.0305   22.9891  -25.2965 O   0  0  0  0  0  0  0  0  0  0  0  0
  -10.0080   20.8719  -24.8434 C   0  0  0  0  0  0  0  0  0  0  0  0
  -11.0879   21.6613  -24.1276 C   0  0  0  0  0  0  0  0  0  0  0  0
  -13.4006   19.1098  -22.7759 N   0  3  0  0  0  0  0  0  0  0  0  0
  -12.2115   19.4437  -23.3641 C   0  0  0  0  0  0  0  0  0  0  0  0
  -12.1795   20.8144  -23.5390 C   0  0  1  0  0  0  0  0  0  0  0  0
  -13.4084   21.3208  -23.0193 C   0  0  2  0  0  0  0  0  0  0  0  0
  -13.9441   22.6179  -22.9061 C   0  0  0  0  0  0  0  0  0  0  0  0
  -15.2061   22.7913  -22.3383 C   0  0  0  0  0  0  0  0  0  0  0  0
  -15.9323   21.6927  -21.8811 C   0  0  0  0  0  0  0  0  0  0  0  0
  -15.4185   20.3924  -21.9779 C   0  0  0  0  0  0  0  0  0  0  0  0
  -14.1538   20.2391  -22.5505 C   0  0  1  0  0  0  0  0  0  0  0  0
   -9.6387   20.0638  -24.2011 H   0  0  0  0  0  0  0  0  0  0  0  0
  -10.4186   20.4115  -25.7506 H   0  0  0  0  0  0  0  0  0  0  0  0
  -11.5456   22.3705  -24.8312 H   0  0  0  0  0  0  0  0  0  0  0  0
  -10.6506   22.2604  -23.3180 H   0  0  0  0  0  0  0  0  0  0  0  0
  -13.6783   18.1709  -22.5337 H   0  0  0  0  0  0  0  0  0  0  0  0
  -11.4819   18.6843  -23.6109 H   0  0  0  0  0  0  0  0  0  0  0  0
  -13.3714   23.4711  -23.2623 H   0  0  0  0  0  0  0  0  0  0  0  0
  -15.6167   23.7931  -22.2574 H   0  0  0  0  0  0  0  0  0  0  0  0
  -16.9123   21.8482  -21.4419 H   0  0  0  0  0  0  0  0  0  0  0  0
  -15.9856   19.5411  -21.6179 H   0  0  0  0  0  0  0  0  0  0  0  0
  1  2  2  0  0  0  0
  1  3  1  0  0  0  0
  1  4  1  0  0  0  0
  4  5  1  0  0  0  0
  4 15  1  0  0  0  0
  4 16  1  0  0  0  0
  5 17  1  0  0  0  0
  5 18  1  0  0  0  0
  6  7  1  0  0  0  0
  6 19  1  0  0  0  0
  7  8  1  0  0  0  0
  7 20  1  0  0  0  0
  8  5  1  1  0  0  0
  8  9  1  0  0  0  0
  9 10  1  1  0  0  0
  9 14  1  0  0  0  0
 10 11  1  0  0  0  0
 10 21  1  0  0  0  0
 11 12  1  0  0  0  0
 11 22  1  0  0  0  0
 12 13  1  0  0  0  0
 12 23  1  0  0  0  0
 13 14  1  0  0  0  0
 13 24  1  0  0  0  0
 14  6  1  6  0  0  0
M  CHG  1   6   1
M  END
$$$$
