JAK
 OpenBabel04111918443D

 37 40  0  0  0  0  0  0  0  0999 V2000
    8.9766   56.7533   -0.4438 C   0  0  0  0  0  0  0  0  0  0  0  0
    7.8753   57.7452   -0.2683 C   0  0  0  0  0  0  0  0  0  0  0  0
    7.9768   58.9895   -0.6716 N   0  0  0  0  0  0  0  0  0  0  0  0
    6.8003   59.5996   -0.3312 C   0  0  0  0  0  0  0  0  0  0  0  0
    6.3928   60.9256   -0.5249 C   0  0  0  0  0  0  0  0  0  0  0  0
    5.1803   61.3888   -0.1173 N   0  0  0  0  0  0  0  0  0  0  0  0
    4.4021   60.4808    0.4842 C   0  0  0  0  0  0  0  0  0  0  0  0
    4.7223   59.1558    0.7127 C   0  0  0  0  0  0  0  0  0  0  0  0
    5.9482   58.6985    0.2937 C   0  0  0  0  0  0  0  0  0  0  0  0
    6.6271   57.5165    0.3303 N   0  3  0  0  0  0  0  0  0  0  0  0
    6.2823   56.2379    0.9273 C   0  0  0  0  0  0  0  0  0  0  0  0
    6.0697   56.3445    2.4371 C   0  0  0  0  0  0  0  0  0  0  0  0
    5.8469   54.9786    3.0509 C   0  0  0  0  0  0  0  0  0  0  0  0
    4.7260   54.2870    2.3436 N   0  3  0  0  0  0  0  0  0  0  0  0
    4.9128   54.1441    0.8668 C   0  0  0  0  0  0  0  0  0  0  0  0
    5.1153   55.5172    0.2449 C   0  0  0  0  0  0  0  0  0  0  0  0
    3.6036   58.5617    1.3721 C   0  0  0  0  0  0  0  0  0  0  0  0
    2.6524   59.5550    1.5231 C   0  0  0  0  0  0  0  0  0  0  0  0
    3.1450   60.7168    0.9794 N   0  3  0  0  0  0  0  0  0  0  0  0
    9.8296   57.2210   -0.9493 H   0  0  0  0  0  0  0  0  0  0  0  0
    8.6545   55.9095   -1.0615 H   0  0  0  0  0  0  0  0  0  0  0  0
    9.3391   56.3783    0.5194 H   0  0  0  0  0  0  0  0  0  0  0  0
    7.0424   61.6414   -1.0154 H   0  0  0  0  0  0  0  0  0  0  0  0
    7.1549   55.5841    0.7888 H   0  0  0  0  0  0  0  0  0  0  0  0
    5.2034   56.9664    2.6565 H   0  0  0  0  0  0  0  0  0  0  0  0
    6.9250   56.8375    2.9124 H   0  0  0  0  0  0  0  0  0  0  0  0
    5.5609   55.0613    4.1029 H   0  0  0  0  0  0  0  0  0  0  0  0
    6.7326   54.3426    2.9582 H   0  0  0  0  0  0  0  0  0  0  0  0
    4.6087   53.3492    2.7552 H   0  0  0  0  0  0  0  0  0  0  0  0
    4.0175   53.6525    0.4762 H   0  0  0  0  0  0  0  0  0  0  0  0
    5.7802   53.4932    0.7138 H   0  0  0  0  0  0  0  0  0  0  0  0
    5.2968   55.4128   -0.8305 H   0  0  0  0  0  0  0  0  0  0  0  0
    4.1957   56.0953    0.3469 H   0  0  0  0  0  0  0  0  0  0  0  0
    3.4420   57.5537    1.7201 H   0  0  0  0  0  0  0  0  0  0  0  0
    1.6602   59.5417    1.9716 H   0  0  0  0  0  0  0  0  0  0  0  0
    2.6841   61.6139    0.9314 H   0  0  0  0  0  0  0  0  0  0  0  0
    3.8352   54.7707    2.5375 H   0  0  0  0  0  0  0  0  0  0  0  0
  1  2  1  0  0  0  0
  1 20  1  0  0  0  0
  1 21  1  0  0  0  0
  1 22  1  0  0  0  0
  2  3  1  0  0  0  0
  2 10  2  0  0  0  0
  3  4  1  0  0  0  0
  4  5  2  0  0  0  0
  4  9  1  0  0  0  0
  5  6  1  0  0  0  0
  5 23  1  0  0  0  0
  6  7  1  0  0  0  0
  7  8  1  0  0  0  0
  7 19  2  0  0  0  0
  8  9  2  0  0  0  0
  8 17  1  0  0  0  0
  9 10  1  0  0  0  0
 10 11  1  0  0  0  0
 11 12  1  0  0  0  0
 11 16  1  0  0  0  0
 11 24  1  0  0  0  0
 12 13  1  0  0  0  0
 12 25  1  0  0  0  0
 12 26  1  0  0  0  0
 13 14  1  0  0  0  0
 13 27  1  0  0  0  0
 13 28  1  0  0  0  0
 14 15  1  0  0  0  0
 14 29  1  0  0  0  0
 14 37  1  0  0  0  0
 15 16  1  0  0  0  0
 15 30  1  0  0  0  0
 15 31  1  0  0  0  0
 16 32  1  0  0  0  0
 16 33  1  0  0  0  0
 17 18  2  0  0  0  0
 17 34  1  0  0  0  0
 18 19  1  0  0  0  0
 18 35  1  0  0  0  0
 19 36  1  0  0  0  0
M  CHG  3  10   1  14   1  19   1
M  END
$$$$
