JB7
 OpenBabel04111920353D

 58 58  0  0  1  0  0  0  0  0999 V2000
   17.0603   20.5297   39.2636 C   0  0  0  0  0  0  0  0  0  0  0  0
   16.0917   20.6835   38.0300 C   0  0  2  0  0  0  0  0  0  0  0  0
   14.7985   19.9491   38.3898 C   0  0  0  0  0  0  0  0  0  0  0  0
   14.9829   18.4350   38.5404 C   0  0  0  0  0  0  0  0  0  0  0  0
   13.8263   17.6723   39.1835 C   0  0  0  0  0  0  0  0  0  0  0  0
   17.9101   20.6478   36.4775 C   0  0  0  0  0  0  0  0  0  0  0  0
   26.0274   15.2401   39.3966 C   0  0  0  0  0  0  0  0  0  0  0  0
   25.1805   13.5059   37.9887 C   0  0  0  0  0  0  0  0  0  0  0  0
   24.9066   14.4461   36.9740 C   0  0  0  0  0  0  0  0  0  0  0  0
   24.0260   19.8318   40.5926 O   0  0  0  0  0  0  0  0  0  0  0  0
   24.7480   18.8698   40.3179 C   0  0  0  0  0  0  0  0  0  0  0  0
   25.3831   18.1199   41.4634 C   0  0  0  0  0  0  0  0  0  0  0  0
   25.0192   18.4956   39.0092 N   0  0  0  0  0  0  0  0  0  0  0  0
   26.1289   17.6339   38.6352 C   0  0  0  0  0  0  0  0  0  0  0  0
   25.7485   16.1995   38.4071 C   0  0  0  0  0  0  0  0  0  0  0  0
   25.1737   15.7825   37.1988 C   0  0  0  0  0  0  0  0  0  0  0  0
   24.8657   11.6657   37.7018 Br  0  0  0  0  0  0  0  0  0  0  0  0
   25.7314   13.9058   39.1941 C   0  0  0  0  0  0  0  0  0  0  0  0
   24.3613   19.1900   37.8990 C   0  0  0  0  0  0  0  0  0  0  0  0
   22.8966   18.8225   37.7147 C   0  0  0  0  0  0  0  0  0  0  0  0
   22.2497   19.5935   36.5515 C   0  0  0  0  0  0  0  0  0  0  0  0
   20.7582   19.2488   36.4976 C   0  0  0  0  0  0  0  0  0  0  0  0
   19.9766   19.9029   35.3389 C   0  0  1  0  0  0  0  0  0  0  0  0
   20.2613   19.2412   33.9729 C   0  0  0  0  0  0  0  0  0  0  0  0
   19.6898   18.1496   33.7358 O   0  0  0  0  0  0  0  0  0  0  0  0
   21.0165   19.9177   33.1968 O   0  0  0  0  0  0  0  0  0  0  0  0
   18.5388   19.8107   35.6170 N   0  0  0  0  0  0  0  0  0  0  0  0
   18.4232   21.6514   36.9490 O   0  0  0  0  0  0  0  0  0  0  0  0
   16.6236   20.2500   36.7410 N   0  0  0  0  0  0  0  0  0  0  0  0
   17.9001   19.5837   39.2275 O   0  0  0  0  0  0  0  0  0  0  0  0
   16.8643   21.3833   40.2007 O   0  0  0  0  0  0  0  0  0  0  0  0
   13.0069   18.3321   39.8873 O   0  0  0  0  0  0  0  0  0  0  0  0
   13.7902   16.4320   38.9151 O   0  0  0  0  0  0  0  0  0  0  0  0
   15.8819   21.7537   37.8922 H   0  0  0  0  0  0  0  0  0  0  0  0
   14.0525   20.1351   37.6066 H   0  0  0  0  0  0  0  0  0  0  0  0
   14.4047   20.3734   39.3205 H   0  0  0  0  0  0  0  0  0  0  0  0
   15.8661   18.2231   39.1502 H   0  0  0  0  0  0  0  0  0  0  0  0
   15.1849   18.0005   37.5541 H   0  0  0  0  0  0  0  0  0  0  0  0
   26.4896   15.5360   40.3321 H   0  0  0  0  0  0  0  0  0  0  0  0
   24.4981   14.1394   36.0255 H   0  0  0  0  0  0  0  0  0  0  0  0
   26.0245   17.3011   41.1582 H   0  0  0  0  0  0  0  0  0  0  0  0
   24.6062   17.6977   42.1074 H   0  0  0  0  0  0  0  0  0  0  0  0
   26.0035   18.8095   42.0418 H   0  0  0  0  0  0  0  0  0  0  0  0
   26.9266   17.6911   39.3803 H   0  0  0  0  0  0  0  0  0  0  0  0
   26.5834   18.0213   37.7124 H   0  0  0  0  0  0  0  0  0  0  0  0
   24.9488   16.5249   36.4237 H   0  0  0  0  0  0  0  0  0  0  0  0
   25.9653   13.1936   39.9880 H   0  0  0  0  0  0  0  0  0  0  0  0
   24.8862   18.9392   36.9671 H   0  0  0  0  0  0  0  0  0  0  0  0
   24.4725   20.2666   38.0530 H   0  0  0  0  0  0  0  0  0  0  0  0
   22.3494   19.0298   38.6398 H   0  0  0  0  0  0  0  0  0  0  0  0
   22.8090   17.7468   37.5194 H   0  0  0  0  0  0  0  0  0  0  0  0
   22.7366   19.3293   35.6062 H   0  0  0  0  0  0  0  0  0  0  0  0
   22.3854   20.6726   36.7009 H   0  0  0  0  0  0  0  0  0  0  0  0
   20.3257   19.5542   37.4608 H   0  0  0  0  0  0  0  0  0  0  0  0
   20.6496   18.1603   36.4408 H   0  0  0  0  0  0  0  0  0  0  0  0
   20.2294   20.9769   35.3236 H   0  0  0  0  0  0  0  0  0  0  0  0
   18.0945   18.9799   35.2634 H   0  0  0  0  0  0  0  0  0  0  0  0
   16.2502   19.4220   36.3070 H   0  0  0  0  0  0  0  0  0  0  0  0
  1  2  1  0  0  0  0
  1 30  2  0  0  0  0
  1 31  1  0  0  0  0
  2  3  1  0  0  0  0
  2 29  1  0  0  0  0
  2 34  1  6  0  0  0
  3  4  1  0  0  0  0
  3 35  1  0  0  0  0
  3 36  1  0  0  0  0
  4  5  1  0  0  0  0
  4 37  1  0  0  0  0
  4 38  1  0  0  0  0
  5 32  2  0  0  0  0
  5 33  1  0  0  0  0
  6 27  1  0  0  0  0
  6 28  2  0  0  0  0
  6 29  1  0  0  0  0
  7 15  2  0  0  0  0
  7 18  1  0  0  0  0
  7 39  1  0  0  0  0
  8  9  1  0  0  0  0
  8 17  1  0  0  0  0
  8 18  2  0  0  0  0
  9 16  2  0  0  0  0
  9 40  1  0  0  0  0
 10 11  2  0  0  0  0
 11 12  1  0  0  0  0
 11 13  1  0  0  0  0
 12 41  1  0  0  0  0
 12 42  1  0  0  0  0
 12 43  1  0  0  0  0
 13 14  1  0  0  0  0
 13 19  1  0  0  0  0
 14 15  1  0  0  0  0
 14 44  1  0  0  0  0
 14 45  1  0  0  0  0
 15 16  1  0  0  0  0
 16 46  1  0  0  0  0
 18 47  1  0  0  0  0
 19 20  1  0  0  0  0
 19 48  1  0  0  0  0
 19 49  1  0  0  0  0
 20 21  1  0  0  0  0
 20 50  1  0  0  0  0
 20 51  1  0  0  0  0
 21 22  1  0  0  0  0
 21 52  1  0  0  0  0
 21 53  1  0  0  0  0
 22 23  1  0  0  0  0
 22 54  1  0  0  0  0
 22 55  1  0  0  0  0
 23 24  1  0  0  0  0
 23 27  1  0  0  0  0
 23 56  1  6  0  0  0
 24 25  2  0  0  0  0
 24 26  1  0  0  0  0
 27 57  1  0  0  0  0
 29 58  1  0  0  0  0
M  END
$$$$
