K2Q
 OpenBabel04111918093D

 26 27  0  0  1  0  0  0  0  0999 V2000
    0.5176   -0.6045   43.8704 O   0  0  0  0  0  0  0  0  0  0  0  0
    1.5532   -0.6949   44.5422 C   0  0  0  0  0  0  0  0  0  0  0  0
    2.2749   -1.6939   44.8206 O   0  0  0  0  0  0  0  0  0  0  0  0
    1.9660    0.6086   45.2020 C   0  0  0  0  0  0  0  0  0  0  0  0
    1.1858    1.6981   45.1877 C   0  0  0  0  0  0  0  0  0  0  0  0
    3.2755    0.6045   45.9455 C   0  0  0  0  0  0  0  0  0  0  0  0
    3.8429    1.9455   46.3574 C   0  0  2  0  0  0  0  0  0  0  0  0
    5.1013    2.0831   45.6853 O   0  0  0  0  0  0  0  0  0  0  0  0
    4.1364    1.8676   47.8400 C   0  0  0  0  0  0  0  0  0  0  0  0
    3.3755    2.3913   48.7916 C   0  0  0  0  0  0  0  0  0  0  0  0
    2.0501    3.0670   48.5583 C   0  0  0  0  0  0  0  0  0  0  0  0
    1.2803    2.3947   47.5486 O   0  0  0  0  0  0  0  0  0  0  0  0
    1.5165    2.8063   46.1690 C   0  0  1  0  0  0  0  0  0  0  0  0
    2.9937    3.1534   45.9573 C   0  0  2  0  0  0  0  0  0  0  0  0
    3.1969    3.5476   44.5949 O   0  0  0  0  0  0  0  0  0  0  0  0
    0.3401    1.7495   44.4684 H   0  0  0  0  0  0  0  0  0  0  0  0
    4.0300    0.1624   45.2901 H   0  0  0  0  0  0  0  0  0  0  0  0
    3.1275   -0.0141   46.8361 H   0  0  0  0  0  0  0  0  0  0  0  0
    5.4903    2.9231   45.9880 H   0  0  0  0  0  0  0  0  0  0  0  0
    5.0360    1.2940   48.1148 H   0  0  0  0  0  0  0  0  0  0  0  0
    3.7143    2.3266   49.8278 H   0  0  0  0  0  0  0  0  0  0  0  0
    2.2450    4.1102   48.2984 H   0  0  0  0  0  0  0  0  0  0  0  0
    1.5082    3.0471   49.5116 H   0  0  0  0  0  0  0  0  0  0  0  0
    0.9219    3.6929   45.9674 H   0  0  0  0  0  0  0  0  0  0  0  0
    3.2639    4.0158   46.5814 H   0  0  0  0  0  0  0  0  0  0  0  0
    4.1392    3.7088   44.4511 H   0  0  0  0  0  0  0  0  0  0  0  0
  1  2  2  0  0  0  0
  2  3  1  0  0  0  0
  2  4  1  0  0  0  0
  4  5  2  0  0  0  0
  4  6  1  0  0  0  0
  5 13  1  0  0  0  0
  5 16  1  0  0  0  0
  6  7  1  0  0  0  0
  6 17  1  0  0  0  0
  6 18  1  0  0  0  0
  7  8  1  6  0  0  0
  7  9  1  0  0  0  0
  7 14  1  0  0  0  0
  8 19  1  0  0  0  0
  9 10  2  0  0  0  0
  9 20  1  0  0  0  0
 10 11  1  0  0  0  0
 10 21  1  0  0  0  0
 11 12  1  0  0  0  0
 11 22  1  0  0  0  0
 11 23  1  0  0  0  0
 12 13  1  0  0  0  0
 13 14  1  0  0  0  0
 13 24  1  6  0  0  0
 14 15  1  0  0  0  0
 14 25  1  1  0  0  0
 15 26  1  0  0  0  0
M  END
$$$$
