KGM
 OpenBabel04111920113D

 43 43  0  0  1  0  0  0  0  0999 V2000
    8.6221   -7.0528  -33.6460 O   0  0  0  0  0  0  0  0  0  0  0  0
    8.8098   -7.5861  -34.9555 C   0  0  0  0  0  0  0  0  0  0  0  0
   10.2602   -7.3660  -35.4073 C   0  0  1  0  0  0  0  0  0  0  0  0
   10.7447   -6.7865  -41.8982 C   0  0  0  0  0  0  0  0  0  0  0  0
   10.4326   -5.9504  -35.5465 O   0  0  0  0  0  0  0  0  0  0  0  0
   11.2680   -8.0084  -34.4368 C   0  0  1  0  0  0  0  0  0  0  0  0
   11.1324   -9.4417  -34.4879 O   0  0  0  0  0  0  0  0  0  0  0  0
   12.6929   -7.6197  -34.8675 C   0  0  2  0  0  0  0  0  0  0  0  0
   13.6623   -8.0684  -33.9078 O   0  0  0  0  0  0  0  0  0  0  0  0
   12.8225   -6.0921  -35.0181 C   0  0  2  0  0  0  0  0  0  0  0  0
   12.7305   -5.4434  -33.7384 O   0  0  0  0  0  0  0  0  0  0  0  0
   11.7303   -5.5471  -35.9720 C   0  0  1  0  0  0  0  0  0  0  0  0
   12.0021   -5.9873  -37.2978 O   0  0  0  0  0  0  0  0  0  0  0  0
   11.1131   -5.4891  -38.3050 C   0  0  0  0  0  0  0  0  0  0  0  0
   11.3826   -6.3804  -39.5260 C   0  0  0  0  0  0  0  0  0  0  0  0
   10.5413   -6.1577  -40.7313 C   0  0  0  0  0  0  0  0  0  0  0  0
    9.1610   -7.0372  -45.3963 C   0  0  0  0  0  0  0  0  0  0  0  0
   10.1340   -7.3963  -44.2865 C   0  0  0  0  0  0  0  0  0  0  0  0
    9.9013   -6.4789  -43.0840 C   0  0  0  0  0  0  0  0  0  0  0  0
    7.6734   -7.0962  -33.4394 H   0  0  0  0  0  0  0  0  0  0  0  0
    8.1262   -7.0747  -35.6412 H   0  0  0  0  0  0  0  0  0  0  0  0
    8.5453   -8.6456  -34.9254 H   0  0  0  0  0  0  0  0  0  0  0  0
   10.3680   -7.8381  -36.3939 H   0  0  0  0  0  0  0  0  0  0  0  0
   11.5552   -7.5188  -41.9976 H   0  0  0  0  0  0  0  0  0  0  0  0
   11.1107   -7.6956  -33.3967 H   0  0  0  0  0  0  0  0  0  0  0  0
   10.2600   -9.6644  -34.1227 H   0  0  0  0  0  0  0  0  0  0  0  0
   12.9213   -8.1182  -35.8168 H   0  0  0  0  0  0  0  0  0  0  0  0
   14.5430   -7.9074  -34.2896 H   0  0  0  0  0  0  0  0  0  0  0  0
   13.8216   -5.8603  -35.4044 H   0  0  0  0  0  0  0  0  0  0  0  0
   13.3455   -5.9075  -33.1392 H   0  0  0  0  0  0  0  0  0  0  0  0
   11.7605   -4.4524  -35.9367 H   0  0  0  0  0  0  0  0  0  0  0  0
   11.3382   -4.4387  -38.5274 H   0  0  0  0  0  0  0  0  0  0  0  0
   10.0610   -5.5646  -38.0025 H   0  0  0  0  0  0  0  0  0  0  0  0
   11.2738   -7.4278  -39.2041 H   0  0  0  0  0  0  0  0  0  0  0  0
   12.4443   -6.2559  -39.7991 H   0  0  0  0  0  0  0  0  0  0  0  0
    9.7261   -5.4232  -40.6672 H   0  0  0  0  0  0  0  0  0  0  0  0
    9.3178   -7.6763  -46.2666 H   0  0  0  0  0  0  0  0  0  0  0  0
    9.2992   -5.9891  -45.7156 H   0  0  0  0  0  0  0  0  0  0  0  0
    8.1268   -7.1479  -45.0623 H   0  0  0  0  0  0  0  0  0  0  0  0
   11.1640   -7.2887  -44.6531 H   0  0  0  0  0  0  0  0  0  0  0  0
    9.9937   -8.4438  -44.0061 H   0  0  0  0  0  0  0  0  0  0  0  0
   10.1047   -5.4432  -43.3986 H   0  0  0  0  0  0  0  0  0  0  0  0
    8.8411   -6.5420  -42.8001 H   0  0  0  0  0  0  0  0  0  0  0  0
  1  2  1  0  0  0  0
  1 20  1  0  0  0  0
  2  3  1  0  0  0  0
  2 21  1  0  0  0  0
  2 22  1  0  0  0  0
  3  5  1  0  0  0  0
  3  6  1  0  0  0  0
  3 23  1  6  0  0  0
  4 16  2  0  0  0  0
  4 19  1  0  0  0  0
  4 24  1  0  0  0  0
  5 12  1  0  0  0  0
  6  7  1  0  0  0  0
  6  8  1  0  0  0  0
  6 25  1  1  0  0  0
  7 26  1  0  0  0  0
  8  9  1  0  0  0  0
  8 10  1  0  0  0  0
  8 27  1  6  0  0  0
  9 28  1  0  0  0  0
 10 11  1  0  0  0  0
 10 12  1  0  0  0  0
 10 29  1  6  0  0  0
 11 30  1  0  0  0  0
 12 13  1  0  0  0  0
 12 31  1  1  0  0  0
 13 14  1  0  0  0  0
 14 15  1  0  0  0  0
 14 32  1  0  0  0  0
 14 33  1  0  0  0  0
 15 16  1  0  0  0  0
 15 34  1  0  0  0  0
 15 35  1  0  0  0  0
 16 36  1  0  0  0  0
 17 18  1  0  0  0  0
 17 37  1  0  0  0  0
 17 38  1  0  0  0  0
 17 39  1  0  0  0  0
 18 19  1  0  0  0  0
 18 40  1  0  0  0  0
 18 41  1  0  0  0  0
 19 42  1  0  0  0  0
 19 43  1  0  0  0  0
M  END
$$$$
