KGM
 OpenBabel04111922333D

 45 45  0  0  1  0  0  0  0  0999 V2000
  -55.2854   -5.0964    5.4648 O   0  0  0  0  0  0  0  0  0  0  0  0
  -56.0672   -3.9035    5.4250 C   0  0  0  0  0  0  0  0  0  0  0  0
  -56.9796   -3.7880    4.1930 C   0  0  1  0  0  0  0  0  0  0  0  0
  -58.2855    2.3146    2.8391 C   0  0  0  0  0  0  0  0  0  0  0  0
  -56.1304   -3.6690    3.0480 O   0  0  0  0  0  0  0  0  0  0  0  0
  -57.9795   -4.9505    4.0677 C   0  0  1  0  0  0  0  0  0  0  0  0
  -58.9248   -4.8944    5.1475 O   0  0  0  0  0  0  0  0  0  0  0  0
  -58.7331   -4.8549    2.7295 C   0  0  2  0  0  0  0  0  0  0  0  0
  -59.5098   -6.0477    2.5106 O   0  0  0  0  0  0  0  0  0  0  0  0
  -57.7590   -4.6965    1.5550 C   0  0  2  0  0  0  0  0  0  0  0  0
  -56.9970   -5.8999    1.3701 O   0  0  0  0  0  0  0  0  0  0  0  0
  -56.8304   -3.5050    1.8147 C   0  0  1  0  0  0  0  0  0  0  0  0
  -57.6150   -2.3161    1.7870 O   0  0  0  0  0  0  0  0  0  0  0  0
  -56.8304   -1.1423    1.9753 C   0  0  0  0  0  0  0  0  0  0  0  0
  -57.7987    0.0241    2.0081 C   0  0  0  0  0  0  0  0  0  0  0  0
  -57.1972    1.2582    2.6722 C   0  0  0  0  0  0  0  0  0  0  0  0
  -58.8835    5.4886    4.9251 C   0  0  0  0  0  0  0  0  0  0  0  0
  -59.0332    4.4401    3.8419 C   0  0  0  0  0  0  0  0  0  0  0  0
  -58.0065    3.3128    3.9569 C   0  0  0  0  0  0  0  0  0  0  0  0
  -55.8547   -5.8669    5.3647 H   0  0  0  0  0  0  0  0  0  0  0  0
  -55.3567   -3.0699    5.4285 H   0  0  0  0  0  0  0  0  0  0  0  0
  -56.6449   -3.8506    6.3523 H   0  0  0  0  0  0  0  0  0  0  0  0
  -57.5400   -2.8508    4.3141 H   0  0  0  0  0  0  0  0  0  0  0  0
  -59.2469    1.8306    3.0522 H   0  0  0  0  0  0  0  0  0  0  0  0
  -58.4038    2.8352    1.8790 H   0  0  0  0  0  0  0  0  0  0  0  0
  -57.4845   -5.9262    4.1111 H   0  0  0  0  0  0  0  0  0  0  0  0
  -58.4634   -5.1090    5.9765 H   0  0  0  0  0  0  0  0  0  0  0  0
  -59.4367   -4.0129    2.7755 H   0  0  0  0  0  0  0  0  0  0  0  0
  -60.1339   -5.8481    1.7902 H   0  0  0  0  0  0  0  0  0  0  0  0
  -58.3308   -4.5411    0.6329 H   0  0  0  0  0  0  0  0  0  0  0  0
  -57.6387   -6.6356    1.3961 H   0  0  0  0  0  0  0  0  0  0  0  0
  -56.0777   -3.4579    1.0200 H   0  0  0  0  0  0  0  0  0  0  0  0
  -56.1116   -1.0315    1.1574 H   0  0  0  0  0  0  0  0  0  0  0  0
  -56.2905   -1.2050    2.9257 H   0  0  0  0  0  0  0  0  0  0  0  0
  -58.7031   -0.2783    2.5524 H   0  0  0  0  0  0  0  0  0  0  0  0
  -58.1317    0.2592    0.9883 H   0  0  0  0  0  0  0  0  0  0  0  0
  -56.7656    0.9904    3.6455 H   0  0  0  0  0  0  0  0  0  0  0  0
  -56.3793    1.6562    2.0553 H   0  0  0  0  0  0  0  0  0  0  0  0
  -59.6374    6.2695    4.7775 H   0  0  0  0  0  0  0  0  0  0  0  0
  -57.8970    5.9496    4.8859 H   0  0  0  0  0  0  0  0  0  0  0  0
  -59.0346    5.0513    5.9159 H   0  0  0  0  0  0  0  0  0  0  0  0
  -58.9340    4.9201    2.8619 H   0  0  0  0  0  0  0  0  0  0  0  0
  -60.0458    4.0183    3.8883 H   0  0  0  0  0  0  0  0  0  0  0  0
  -56.9909    3.7097    3.8822 H   0  0  0  0  0  0  0  0  0  0  0  0
  -58.0975    2.8170    4.9350 H   0  0  0  0  0  0  0  0  0  0  0  0
  1  2  1  0  0  0  0
  1 20  1  0  0  0  0
  2  3  1  0  0  0  0
  2 21  1  0  0  0  0
  2 22  1  0  0  0  0
  3  5  1  0  0  0  0
  3  6  1  0  0  0  0
  3 23  1  1  0  0  0
  4 16  1  0  0  0  0
  4 19  1  0  0  0  0
  4 24  1  0  0  0  0
  4 25  1  0  0  0  0
  5 12  1  0  0  0  0
  6  7  1  0  0  0  0
  6  8  1  0  0  0  0
  6 26  1  1  0  0  0
  7 27  1  0  0  0  0
  8  9  1  0  0  0  0
  8 10  1  0  0  0  0
  8 28  1  1  0  0  0
  9 29  1  0  0  0  0
 10 11  1  0  0  0  0
 10 12  1  0  0  0  0
 10 30  1  6  0  0  0
 11 31  1  0  0  0  0
 12 13  1  0  0  0  0
 12 32  1  6  0  0  0
 13 14  1  0  0  0  0
 14 15  1  0  0  0  0
 14 33  1  0  0  0  0
 14 34  1  0  0  0  0
 15 16  1  0  0  0  0
 15 35  1  0  0  0  0
 15 36  1  0  0  0  0
 16 37  1  0  0  0  0
 16 38  1  0  0  0  0
 17 18  1  0  0  0  0
 17 39  1  0  0  0  0
 17 40  1  0  0  0  0
 17 41  1  0  0  0  0
 18 19  1  0  0  0  0
 18 42  1  0  0  0  0
 18 43  1  0  0  0  0
 19 44  1  0  0  0  0
 19 45  1  0  0  0  0
M  END
$$$$
