KGM
 OpenBabel04111918113D

 45 45  0  0  1  0  0  0  0  0999 V2000
   21.6940   -4.6978    5.1795 O   0  0  0  0  0  0  0  0  0  0  0  0
   21.9443   -5.1579    6.5054 C   0  0  0  0  0  0  0  0  0  0  0  0
   20.7901   -6.0353    7.0093 C   0  0  1  0  0  0  0  0  0  0  0  0
   20.1986   -5.8696   13.5757 C   0  0  0  0  0  0  0  0  0  0  0  0
   19.6335   -5.2030    7.1753 O   0  0  0  0  0  0  0  0  0  0  0  0
   20.5206   -7.2157    6.0629 C   0  0  1  0  0  0  0  0  0  0  0  0
   21.6644   -8.0854    6.0557 O   0  0  0  0  0  0  0  0  0  0  0  0
   19.2863   -7.9957    6.5395 C   0  0  2  0  0  0  0  0  0  0  0  0
   18.9136   -8.9862    5.5628 O   0  0  0  0  0  0  0  0  0  0  0  0
   18.0903   -7.0578    6.7390 C   0  0  2  0  0  0  0  0  0  0  0  0
   17.6245   -6.5739    5.4696 O   0  0  0  0  0  0  0  0  0  0  0  0
   18.4889   -5.9036    7.6689 C   0  0  1  0  0  0  0  0  0  0  0  0
   18.7295   -6.4533    8.9647 O   0  0  0  0  0  0  0  0  0  0  0  0
   18.9873   -5.4485    9.9364 C   0  0  0  0  0  0  0  0  0  0  0  0
   19.4162   -6.1610   11.2080 C   0  0  0  0  0  0  0  0  0  0  0  0
   19.7564   -5.1581   12.3007 C   0  0  0  0  0  0  0  0  0  0  0  0
   21.3014   -4.5484   17.0334 C   0  0  0  0  0  0  0  0  0  0  0  0
   20.9814   -5.5550   15.9461 C   0  0  0  0  0  0  0  0  0  0  0  0
   20.5325   -4.8571   14.6760 C   0  0  0  0  0  0  0  0  0  0  0  0
   22.3634   -4.0265    4.9739 H   0  0  0  0  0  0  0  0  0  0  0  0
   22.0736   -4.2874    7.1572 H   0  0  0  0  0  0  0  0  0  0  0  0
   22.8802   -5.7234    6.4861 H   0  0  0  0  0  0  0  0  0  0  0  0
   21.0920   -6.4118    7.9914 H   0  0  0  0  0  0  0  0  0  0  0  0
   21.0775   -6.4912   13.3661 H   0  0  0  0  0  0  0  0  0  0  0  0
   19.4016   -6.5383   13.9193 H   0  0  0  0  0  0  0  0  0  0  0  0
   20.3476   -6.8822    5.0327 H   0  0  0  0  0  0  0  0  0  0  0  0
   22.3303   -7.6572    5.4908 H   0  0  0  0  0  0  0  0  0  0  0  0
   19.5301   -8.5301    7.4666 H   0  0  0  0  0  0  0  0  0  0  0  0
   18.3392   -9.6256    6.0198 H   0  0  0  0  0  0  0  0  0  0  0  0
   17.2611   -7.6280    7.1733 H   0  0  0  0  0  0  0  0  0  0  0  0
   17.7252   -7.3220    4.8476 H   0  0  0  0  0  0  0  0  0  0  0  0
   17.6621   -5.1834    7.7226 H   0  0  0  0  0  0  0  0  0  0  0  0
   18.0813   -4.8567   10.1054 H   0  0  0  0  0  0  0  0  0  0  0  0
   19.7914   -4.7846    9.6005 H   0  0  0  0  0  0  0  0  0  0  0  0
   20.2833   -6.8002   10.9936 H   0  0  0  0  0  0  0  0  0  0  0  0
   18.6190   -6.8379   11.5381 H   0  0  0  0  0  0  0  0  0  0  0  0
   20.5559   -4.4922   11.9533 H   0  0  0  0  0  0  0  0  0  0  0  0
   18.8813   -4.5325   12.5091 H   0  0  0  0  0  0  0  0  0  0  0  0
   21.6232   -5.0719   17.9412 H   0  0  0  0  0  0  0  0  0  0  0  0
   20.4237   -3.9454   17.2814 H   0  0  0  0  0  0  0  0  0  0  0  0
   22.1073   -3.8778   16.7234 H   0  0  0  0  0  0  0  0  0  0  0  0
   20.1922   -6.2314   16.2922 H   0  0  0  0  0  0  0  0  0  0  0  0
   21.8676   -6.1642   15.7372 H   0  0  0  0  0  0  0  0  0  0  0  0
   19.6497   -4.2374   14.8716 H   0  0  0  0  0  0  0  0  0  0  0  0
   21.3178   -4.1809   14.3144 H   0  0  0  0  0  0  0  0  0  0  0  0
  1  2  1  0  0  0  0
  1 20  1  0  0  0  0
  2  3  1  0  0  0  0
  2 21  1  0  0  0  0
  2 22  1  0  0  0  0
  3  5  1  0  0  0  0
  3  6  1  0  0  0  0
  3 23  1  1  0  0  0
  4 16  1  0  0  0  0
  4 19  1  0  0  0  0
  4 24  1  0  0  0  0
  4 25  1  0  0  0  0
  5 12  1  0  0  0  0
  6  7  1  0  0  0  0
  6  8  1  0  0  0  0
  6 26  1  6  0  0  0
  7 27  1  0  0  0  0
  8  9  1  0  0  0  0
  8 10  1  0  0  0  0
  8 28  1  1  0  0  0
  9 29  1  0  0  0  0
 10 11  1  0  0  0  0
 10 12  1  0  0  0  0
 10 30  1  1  0  0  0
 11 31  1  0  0  0  0
 12 13  1  0  0  0  0
 12 32  1  1  0  0  0
 13 14  1  0  0  0  0
 14 15  1  0  0  0  0
 14 33  1  0  0  0  0
 14 34  1  0  0  0  0
 15 16  1  0  0  0  0
 15 35  1  0  0  0  0
 15 36  1  0  0  0  0
 16 37  1  0  0  0  0
 16 38  1  0  0  0  0
 17 18  1  0  0  0  0
 17 39  1  0  0  0  0
 17 40  1  0  0  0  0
 17 41  1  0  0  0  0
 18 19  1  0  0  0  0
 18 42  1  0  0  0  0
 18 43  1  0  0  0  0
 19 44  1  0  0  0  0
 19 45  1  0  0  0  0
M  END
$$$$
