KGQ
 OpenBabel04111920223D

 98101  0  0  1  0  0  0  0  0999 V2000
  -11.6573   52.5454    2.1179 N   0  0  0  0  0  0  0  0  0  0  0  0
  -13.5801   51.3669   -1.4613 C   0  0  1  0  0  0  0  0  0  0  0  0
  -14.6083   47.0710    1.7508 O   0  0  0  0  0  0  0  0  0  0  0  0
  -11.8019   52.5810    3.5682 C   0  0  1  0  0  0  0  0  0  0  0  0
  -11.5528   51.2073    4.2041 C   0  0  0  0  0  0  0  0  0  0  0  0
  -12.3880   50.1075    3.6023 C   0  0  0  0  0  0  0  0  0  0  0  0
  -13.7892   50.1155    3.6960 C   0  0  0  0  0  0  0  0  0  0  0  0
  -14.5404   49.0962    3.1062 C   0  0  0  0  0  0  0  0  0  0  0  0
  -13.9069   48.0673    2.3959 C   0  0  0  0  0  0  0  0  0  0  0  0
  -15.5922   47.6294    0.8631 C   0  0  0  0  0  0  0  0  0  0  0  0
  -16.3115   46.4750   -0.3032 P   0  0  0  0  0  0  0  0  0  0  0  0
  -17.9034   46.7386   -0.2701 O   0  0  0  0  0  0  0  0  0  0  0  0
  -18.7920   46.2461    0.7112 C   0  0  0  0  0  0  0  0  0  0  0  0
  -20.0478   47.1144    0.7030 C   0  0  0  0  0  0  0  0  0  0  0  0
  -15.7819   46.6906   -1.6987 O   0  0  0  0  0  0  0  0  0  0  0  0
  -16.0574   44.9678    0.2328 O   0  0  0  0  0  0  0  0  0  0  0  0
  -14.7855   44.4341   -0.1419 C   0  0  0  0  0  0  0  0  0  0  0  0
  -14.6696   42.9704    0.2197 C   0  0  0  0  0  0  0  0  0  0  0  0
  -12.5127   48.0368    2.3320 C   0  0  0  0  0  0  0  0  0  0  0  0
  -11.7610   49.0555    2.9197 C   0  0  0  0  0  0  0  0  0  0  0  0
  -10.8500   53.6800    4.1039 C   0  0  2  0  0  0  0  0  0  0  0  0
   -9.4706   53.3222    3.9323 O   0  0  0  0  0  0  0  0  0  0  0  0
  -11.1519   54.1042    5.5513 C   0  0  0  0  0  0  0  0  0  0  0  0
  -12.4712   54.8053    5.7411 N   0  0  0  0  0  0  0  0  0  0  0  0
  -13.0795   55.4704    4.5416 C   0  0  0  0  0  0  0  0  0  0  0  0
  -12.6232   56.9144    4.3275 C   0  0  0  0  0  0  0  0  0  0  0  0
  -13.2767   57.8355    5.3517 C   0  0  0  0  0  0  0  0  0  0  0  0
  -11.1105   57.1244    4.3187 C   0  0  0  0  0  0  0  0  0  0  0  0
  -13.5886   53.9960    6.7578 S   0  0  0  0  0  0  0  0  0  0  0  0
  -13.3766   52.5723    6.6142 O   0  0  0  0  0  0  0  0  0  0  0  0
  -14.9041   54.5702    6.5749 O   0  0  0  0  0  0  0  0  0  0  0  0
  -13.0733   54.4710    8.3964 C   0  0  0  0  0  0  0  0  0  0  0  0
  -13.6646   55.5999    8.9457 C   0  0  0  0  0  0  0  0  0  0  0  0
  -13.4471   55.9204   10.2842 C   0  0  0  0  0  0  0  0  0  0  0  0
  -12.6388   55.0979   11.0805 C   0  0  0  0  0  0  0  0  0  0  0  0
  -12.4103   55.3214   12.4070 O   0  0  0  0  0  0  0  0  0  0  0  0
  -13.4624   56.0215   13.0789 C   0  0  0  0  0  0  0  0  0  0  0  0
  -12.0192   53.9796   10.5121 C   0  0  0  0  0  0  0  0  0  0  0  0
  -12.2452   53.6486    9.1695 C   0  0  0  0  0  0  0  0  0  0  0  0
  -12.6511   52.9508    1.2752 C   0  0  0  0  0  0  0  0  0  0  0  0
  -13.7532   53.3403    1.6149 O   0  0  0  0  0  0  0  0  0  0  0  0
  -12.2385   52.7771    0.0014 O   0  0  0  0  0  0  0  0  0  0  0  0
  -13.2756   52.7774   -0.9976 C   0  0  1  0  0  0  0  0  0  0  0  0
  -12.6971   53.3884   -2.2515 C   0  0  0  0  0  0  0  0  0  0  0  0
  -11.9257   52.3470   -2.8727 O   0  0  0  0  0  0  0  0  0  0  0  0
  -12.5714   51.1105   -2.5693 C   0  0  1  0  0  0  0  0  0  0  0  0
  -11.6861   50.0961   -2.0945 O   0  0  0  0  0  0  0  0  0  0  0  0
  -12.4571   49.2892   -1.1944 C   0  0  0  0  0  0  0  0  0  0  0  0
  -13.3284   50.2727   -0.4573 C   0  0  0  0  0  0  0  0  0  0  0  0
  -10.7935   52.2633    1.6938 H   0  0  0  0  0  0  0  0  0  0  0  0
  -14.5920   51.3052   -1.8796 H   0  0  0  0  0  0  0  0  0  0  0  0
  -12.8415   52.8520    3.7893 H   0  0  0  0  0  0  0  0  0  0  0  0
  -11.7542   51.2343    5.2789 H   0  0  0  0  0  0  0  0  0  0  0  0
  -10.4950   50.9450    4.1055 H   0  0  0  0  0  0  0  0  0  0  0  0
  -14.2996   50.9192    4.2192 H   0  0  0  0  0  0  0  0  0  0  0  0
  -15.6149   49.1239    3.2100 H   0  0  0  0  0  0  0  0  0  0  0  0
  -15.0825   48.2996    0.1930 H   0  0  0  0  0  0  0  0  0  0  0  0
  -16.3758   48.1715    1.4057 H   0  0  0  0  0  0  0  0  0  0  0  0
  -18.3341   46.2473    1.7033 H   0  0  0  0  0  0  0  0  0  0  0  0
  -19.0665   45.2231    0.4382 H   0  0  0  0  0  0  0  0  0  0  0  0
  -20.7981   46.7392    1.4061 H   0  0  0  0  0  0  0  0  0  0  0  0
  -20.5000   47.1470   -0.2958 H   0  0  0  0  0  0  0  0  0  0  0  0
  -19.8110   48.1509    0.9688 H   0  0  0  0  0  0  0  0  0  0  0  0
  -13.9879   45.0024    0.3486 H   0  0  0  0  0  0  0  0  0  0  0  0
  -14.6543   44.5333   -1.2257 H   0  0  0  0  0  0  0  0  0  0  0  0
  -13.6970   42.5770   -0.0963 H   0  0  0  0  0  0  0  0  0  0  0  0
  -15.4554   42.3878   -0.2716 H   0  0  0  0  0  0  0  0  0  0  0  0
  -14.7729   42.8236    1.2987 H   0  0  0  0  0  0  0  0  0  0  0  0
  -12.0057   47.2412    1.7985 H   0  0  0  0  0  0  0  0  0  0  0  0
  -10.6758   49.0457    2.8228 H   0  0  0  0  0  0  0  0  0  0  0  0
  -10.9502   54.5419    3.4416 H   0  0  0  0  0  0  0  0  0  0  0  0
   -9.2635   52.5620    4.4983 H   0  0  0  0  0  0  0  0  0  0  0  0
  -10.3465   54.7442    5.9294 H   0  0  0  0  0  0  0  0  0  0  0  0
  -11.0798   53.2180    6.1937 H   0  0  0  0  0  0  0  0  0  0  0  0
  -14.1710   55.4619    4.6026 H   0  0  0  0  0  0  0  0  0  0  0  0
  -12.8936   54.9174    3.6269 H   0  0  0  0  0  0  0  0  0  0  0  0
  -12.9965   57.2089    3.3371 H   0  0  0  0  0  0  0  0  0  0  0  0
  -13.0364   58.8799    5.1333 H   0  0  0  0  0  0  0  0  0  0  0  0
  -12.9335   57.6045    6.3639 H   0  0  0  0  0  0  0  0  0  0  0  0
  -14.3664   57.7288    5.3248 H   0  0  0  0  0  0  0  0  0  0  0  0
  -10.6230   56.5171    3.5516 H   0  0  0  0  0  0  0  0  0  0  0  0
  -10.6670   56.8865    5.2892 H   0  0  0  0  0  0  0  0  0  0  0  0
  -10.8635   58.1630    4.0888 H   0  0  0  0  0  0  0  0  0  0  0  0
  -14.3400   56.2264    8.3642 H   0  0  0  0  0  0  0  0  0  0  0  0
  -13.9316   56.8047   10.6714 H   0  0  0  0  0  0  0  0  0  0  0  0
  -13.1915   56.1306   14.1332 H   0  0  0  0  0  0  0  0  0  0  0  0
  -14.3967   55.4530   13.0195 H   0  0  0  0  0  0  0  0  0  0  0  0
  -13.5942   57.0329   12.6846 H   0  0  0  0  0  0  0  0  0  0  0  0
  -11.3985   53.3391   11.1326 H   0  0  0  0  0  0  0  0  0  0  0  0
  -11.8155   52.7410    8.7600 H   0  0  0  0  0  0  0  0  0  0  0  0
  -14.1718   53.3080   -0.6611 H   0  0  0  0  0  0  0  0  0  0  0  0
  -12.0455   54.2430   -2.0389 H   0  0  0  0  0  0  0  0  0  0  0  0
  -13.4861   53.6923   -2.9475 H   0  0  0  0  0  0  0  0  0  0  0  0
  -13.0555   50.7379   -3.4797 H   0  0  0  0  0  0  0  0  0  0  0  0
  -11.7878   48.7395   -0.5264 H   0  0  0  0  0  0  0  0  0  0  0  0
  -13.0493   48.5709   -1.7710 H   0  0  0  0  0  0  0  0  0  0  0  0
  -14.2707   49.8943   -0.0889 H   0  0  0  0  0  0  0  0  0  0  0  0
  -12.7863   50.5942    0.4291 H   0  0  0  0  0  0  0  0  0  0  0  0
  1  4  1  0  0  0  0
  1 40  1  0  0  0  0
  1 50  1  0  0  0  0
  2 43  1  0  0  0  0
  2 46  1  0  0  0  0
  2 49  1  0  0  0  0
  2 51  1  6  0  0  0
  3  9  1  0  0  0  0
  3 10  1  0  0  0  0
  4  5  1  0  0  0  0
  4 21  1  0  0  0  0
  4 52  1  1  0  0  0
  5  6  1  0  0  0  0
  5 53  1  0  0  0  0
  5 54  1  0  0  0  0
  6  7  2  0  0  0  0
  6 20  1  0  0  0  0
  7  8  1  0  0  0  0
  7 55  1  0  0  0  0
  8  9  2  0  0  0  0
  8 56  1  0  0  0  0
  9 19  1  0  0  0  0
 10 11  1  0  0  0  0
 10 57  1  0  0  0  0
 10 58  1  0  0  0  0
 11 12  1  0  0  0  0
 11 15  2  0  0  0  0
 11 16  1  0  0  0  0
 12 13  1  0  0  0  0
 13 14  1  0  0  0  0
 13 59  1  0  0  0  0
 13 60  1  0  0  0  0
 14 61  1  0  0  0  0
 14 62  1  0  0  0  0
 14 63  1  0  0  0  0
 16 17  1  0  0  0  0
 17 18  1  0  0  0  0
 17 64  1  0  0  0  0
 17 65  1  0  0  0  0
 18 66  1  0  0  0  0
 18 67  1  0  0  0  0
 18 68  1  0  0  0  0
 19 20  2  0  0  0  0
 19 69  1  0  0  0  0
 20 70  1  0  0  0  0
 21 22  1  0  0  0  0
 21 23  1  0  0  0  0
 21 71  1  6  0  0  0
 22 72  1  0  0  0  0
 23 24  1  0  0  0  0
 23 73  1  0  0  0  0
 23 74  1  0  0  0  0
 24 25  1  0  0  0  0
 24 29  1  0  0  0  0
 25 26  1  0  0  0  0
 25 75  1  0  0  0  0
 25 76  1  0  0  0  0
 26 27  1  0  0  0  0
 26 28  1  0  0  0  0
 26 77  1  0  0  0  0
 27 78  1  0  0  0  0
 27 79  1  0  0  0  0
 27 80  1  0  0  0  0
 28 81  1  0  0  0  0
 28 82  1  0  0  0  0
 28 83  1  0  0  0  0
 29 30  2  0  0  0  0
 29 31  2  0  0  0  0
 29 32  1  0  0  0  0
 32 33  2  0  0  0  0
 32 39  1  0  0  0  0
 33 34  1  0  0  0  0
 33 84  1  0  0  0  0
 34 35  2  0  0  0  0
 34 85  1  0  0  0  0
 35 36  1  0  0  0  0
 35 38  1  0  0  0  0
 36 37  1  0  0  0  0
 37 86  1  0  0  0  0
 37 87  1  0  0  0  0
 37 88  1  0  0  0  0
 38 39  2  0  0  0  0
 38 89  1  0  0  0  0
 39 90  1  0  0  0  0
 40 41  2  0  0  0  0
 40 42  1  0  0  0  0
 42 43  1  0  0  0  0
 43 44  1  0  0  0  0
 43 91  1  1  0  0  0
 44 45  1  0  0  0  0
 44 92  1  0  0  0  0
 44 93  1  0  0  0  0
 45 46  1  0  0  0  0
 46 47  1  0  0  0  0
 46 94  1  6  0  0  0
 47 48  1  0  0  0  0
 48 49  1  0  0  0  0
 48 95  1  0  0  0  0
 48 96  1  0  0  0  0
 49 97  1  0  0  0  0
 49 98  1  0  0  0  0
M  END
$$$$
