KGQ
 OpenBabel04111920213D

 98101  0  0  1  0  0  0  0  0999 V2000
  -11.8378   52.4719    2.2962 N   0  0  0  0  0  0  0  0  0  0  0  0
  -13.6659   51.0230   -1.3732 C   0  0  1  0  0  0  0  0  0  0  0  0
  -14.8639   47.1411    2.0599 O   0  0  0  0  0  0  0  0  0  0  0  0
  -11.9456   52.5267    3.7819 C   0  0  1  0  0  0  0  0  0  0  0  0
  -11.5697   51.1376    4.3492 C   0  0  0  0  0  0  0  0  0  0  0  0
  -12.4242   50.0507    3.7688 C   0  0  0  0  0  0  0  0  0  0  0  0
  -11.8660   48.9915    3.0365 C   0  0  0  0  0  0  0  0  0  0  0  0
  -12.6818   47.9983    2.4850 C   0  0  0  0  0  0  0  0  0  0  0  0
  -14.0618   48.0928    2.6423 C   0  0  0  0  0  0  0  0  0  0  0  0
  -15.9012   47.7872    1.3053 C   0  0  0  0  0  0  0  0  0  0  0  0
  -16.6684   46.6708    0.1427 P   0  0  0  0  0  0  0  0  0  0  0  0
  -18.2823   46.7743    0.2874 O   0  0  0  0  0  0  0  0  0  0  0  0
  -19.1766   46.0753    1.1472 C   0  0  0  0  0  0  0  0  0  0  0  0
  -20.0736   47.0403    1.9366 C   0  0  0  0  0  0  0  0  0  0  0  0
  -16.2534   47.1014   -1.2446 O   0  0  0  0  0  0  0  0  0  0  0  0
  -16.1272   45.1564    0.4149 O   0  0  0  0  0  0  0  0  0  0  0  0
  -14.8676   44.8140   -0.2284 C   0  0  0  0  0  0  0  0  0  0  0  0
  -14.5763   43.3256   -0.1249 C   0  0  0  0  0  0  0  0  0  0  0  0
  -14.6191   49.1501    3.3635 C   0  0  0  0  0  0  0  0  0  0  0  0
  -13.8062   50.1177    3.9280 C   0  0  0  0  0  0  0  0  0  0  0  0
  -10.8935   53.5543    4.2798 C   0  0  2  0  0  0  0  0  0  0  0  0
   -9.6459   52.8780    4.2091 O   0  0  0  0  0  0  0  0  0  0  0  0
  -11.1245   54.1427    5.6934 C   0  0  0  0  0  0  0  0  0  0  0  0
  -12.3907   54.9340    5.8721 N   0  0  0  0  0  0  0  0  0  0  0  0
  -12.9128   55.4646    4.5651 C   0  0  0  0  0  0  0  0  0  0  0  0
  -12.6672   56.9372    4.3169 C   0  0  0  0  0  0  0  0  0  0  0  0
  -11.1808   57.2426    4.1904 C   0  0  0  0  0  0  0  0  0  0  0  0
  -13.3045   57.7623    5.4122 C   0  0  0  0  0  0  0  0  0  0  0  0
  -13.6085   54.0376    6.7873 S   0  0  0  0  0  0  0  0  0  0  0  0
  -14.9104   54.5302    6.3996 O   0  0  0  0  0  0  0  0  0  0  0  0
  -13.3223   52.6410    6.6590 O   0  0  0  0  0  0  0  0  0  0  0  0
  -13.2924   54.4366    8.4967 C   0  0  0  0  0  0  0  0  0  0  0  0
  -12.3975   53.6468    9.2398 C   0  0  0  0  0  0  0  0  0  0  0  0
  -12.2081   53.8917   10.6105 C   0  0  0  0  0  0  0  0  0  0  0  0
  -12.9304   54.9110   11.2314 C   0  0  0  0  0  0  0  0  0  0  0  0
  -12.7425   55.1580   12.5703 O   0  0  0  0  0  0  0  0  0  0  0  0
  -12.9605   56.5439   12.8685 C   0  0  0  0  0  0  0  0  0  0  0  0
  -13.8444   55.6557   10.4793 C   0  0  0  0  0  0  0  0  0  0  0  0
  -14.0292   55.4273    9.1284 C   0  0  0  0  0  0  0  0  0  0  0  0
  -12.7950   52.8710    1.3848 C   0  0  0  0  0  0  0  0  0  0  0  0
  -13.8353   53.3530    1.6393 O   0  0  0  0  0  0  0  0  0  0  0  0
  -12.3630   52.5426    0.1126 O   0  0  0  0  0  0  0  0  0  0  0  0
  -13.4341   52.4518   -0.8667 C   0  0  1  0  0  0  0  0  0  0  0  0
  -12.9438   53.1189   -2.1290 C   0  0  0  0  0  0  0  0  0  0  0  0
  -12.0723   52.1410   -2.7379 O   0  0  0  0  0  0  0  0  0  0  0  0
  -12.5884   50.8315   -2.4259 C   0  0  1  0  0  0  0  0  0  0  0  0
  -11.6110   49.9550   -1.8437 O   0  0  0  0  0  0  0  0  0  0  0  0
  -12.2773   49.1215   -0.8909 C   0  0  0  0  0  0  0  0  0  0  0  0
  -13.4337   49.9304   -0.3787 C   0  0  0  0  0  0  0  0  0  0  0  0
  -11.0169   52.0451    1.9383 H   0  0  0  0  0  0  0  0  0  0  0  0
  -14.6681   50.9439   -1.8266 H   0  0  0  0  0  0  0  0  0  0  0  0
  -12.9550   52.8210    4.0908 H   0  0  0  0  0  0  0  0  0  0  0  0
  -11.6486   51.1437    5.4436 H   0  0  0  0  0  0  0  0  0  0  0  0
  -10.5198   50.9188    4.1129 H   0  0  0  0  0  0  0  0  0  0  0  0
  -10.7892   48.9340    2.8927 H   0  0  0  0  0  0  0  0  0  0  0  0
  -12.2436   47.1834    1.9124 H   0  0  0  0  0  0  0  0  0  0  0  0
  -15.4317   48.5754    0.7266 H   0  0  0  0  0  0  0  0  0  0  0  0
  -16.6178   48.2926    1.9484 H   0  0  0  0  0  0  0  0  0  0  0  0
  -18.6170   45.4442    1.8304 H   0  0  0  0  0  0  0  0  0  0  0  0
  -19.8408   45.4343    0.5391 H   0  0  0  0  0  0  0  0  0  0  0  0
  -20.7657   46.5018    2.6008 H   0  0  0  0  0  0  0  0  0  0  0  0
  -20.6762   47.6741    1.2712 H   0  0  0  0  0  0  0  0  0  0  0  0
  -19.4603   47.7051    2.5544 H   0  0  0  0  0  0  0  0  0  0  0  0
  -14.0370   45.3712    0.2290 H   0  0  0  0  0  0  0  0  0  0  0  0
  -14.9030   45.0802   -1.2961 H   0  0  0  0  0  0  0  0  0  0  0  0
  -13.6309   43.0653   -0.6197 H   0  0  0  0  0  0  0  0  0  0  0  0
  -15.3802   42.7475   -0.5923 H   0  0  0  0  0  0  0  0  0  0  0  0
  -14.5109   43.0252    0.9252 H   0  0  0  0  0  0  0  0  0  0  0  0
  -15.6920   49.2290    3.4819 H   0  0  0  0  0  0  0  0  0  0  0  0
  -14.2568   50.9284    4.4957 H   0  0  0  0  0  0  0  0  0  0  0  0
  -10.8087   54.3725    3.5500 H   0  0  0  0  0  0  0  0  0  0  0  0
   -8.9341   53.4703    4.5142 H   0  0  0  0  0  0  0  0  0  0  0  0
  -10.2660   54.7773    5.9498 H   0  0  0  0  0  0  0  0  0  0  0  0
  -11.1283   53.3248    6.4091 H   0  0  0  0  0  0  0  0  0  0  0  0
  -13.9608   55.2356    4.4696 H   0  0  0  0  0  0  0  0  0  0  0  0
  -12.4788   54.9430    3.7323 H   0  0  0  0  0  0  0  0  0  0  0  0
  -13.1432   57.2018    3.3590 H   0  0  0  0  0  0  0  0  0  0  0  0
  -11.0227   58.3102    4.0110 H   0  0  0  0  0  0  0  0  0  0  0  0
  -10.7422   56.6853    3.3557 H   0  0  0  0  0  0  0  0  0  0  0  0
  -10.6552   56.9653    5.1080 H   0  0  0  0  0  0  0  0  0  0  0  0
  -14.3729   57.5343    5.4835 H   0  0  0  0  0  0  0  0  0  0  0  0
  -13.1889   58.8294    5.2036 H   0  0  0  0  0  0  0  0  0  0  0  0
  -12.8360   57.5440    6.3765 H   0  0  0  0  0  0  0  0  0  0  0  0
  -11.8436   52.8400    8.7561 H   0  0  0  0  0  0  0  0  0  0  0  0
  -11.4883   53.2964   11.1706 H   0  0  0  0  0  0  0  0  0  0  0  0
  -12.8342   56.7205   13.9342 H   0  0  0  0  0  0  0  0  0  0  0  0
  -13.9839   56.8595   12.6397 H   0  0  0  0  0  0  0  0  0  0  0  0
  -12.2493   57.1563   12.3037 H   0  0  0  0  0  0  0  0  0  0  0  0
  -14.4293   56.4390   10.9440 H   0  0  0  0  0  0  0  0  0  0  0  0
  -14.7491   56.0351    8.5881 H   0  0  0  0  0  0  0  0  0  0  0  0
  -14.3631   52.8921   -0.4987 H   0  0  0  0  0  0  0  0  0  0  0  0
  -12.4045   54.0493   -1.9170 H   0  0  0  0  0  0  0  0  0  0  0  0
  -13.7706   53.3364   -2.8198 H   0  0  0  0  0  0  0  0  0  0  0  0
  -12.9716   50.3703   -3.3525 H   0  0  0  0  0  0  0  0  0  0  0  0
  -11.5975   48.8346   -0.0785 H   0  0  0  0  0  0  0  0  0  0  0  0
  -12.6165   48.1965   -1.3811 H   0  0  0  0  0  0  0  0  0  0  0  0
  -14.2982   49.2968   -0.3274 H   0  0  0  0  0  0  0  0  0  0  0  0
  -13.2292   50.3185    0.6141 H   0  0  0  0  0  0  0  0  0  0  0  0
  1  4  1  0  0  0  0
  1 40  1  0  0  0  0
  1 50  1  0  0  0  0
  2 43  1  0  0  0  0
  2 46  1  0  0  0  0
  2 49  1  0  0  0  0
  2 51  1  6  0  0  0
  3  9  1  0  0  0  0
  3 10  1  0  0  0  0
  4  5  1  0  0  0  0
  4 21  1  0  0  0  0
  4 52  1  1  0  0  0
  5  6  1  0  0  0  0
  5 53  1  0  0  0  0
  5 54  1  0  0  0  0
  6  7  2  0  0  0  0
  6 20  1  0  0  0  0
  7  8  1  0  0  0  0
  7 55  1  0  0  0  0
  8  9  2  0  0  0  0
  8 56  1  0  0  0  0
  9 19  1  0  0  0  0
 10 11  1  0  0  0  0
 10 57  1  0  0  0  0
 10 58  1  0  0  0  0
 11 12  1  0  0  0  0
 11 15  2  0  0  0  0
 11 16  1  0  0  0  0
 12 13  1  0  0  0  0
 13 14  1  0  0  0  0
 13 59  1  0  0  0  0
 13 60  1  0  0  0  0
 14 61  1  0  0  0  0
 14 62  1  0  0  0  0
 14 63  1  0  0  0  0
 16 17  1  0  0  0  0
 17 18  1  0  0  0  0
 17 64  1  0  0  0  0
 17 65  1  0  0  0  0
 18 66  1  0  0  0  0
 18 67  1  0  0  0  0
 18 68  1  0  0  0  0
 19 20  2  0  0  0  0
 19 69  1  0  0  0  0
 20 70  1  0  0  0  0
 21 22  1  0  0  0  0
 21 23  1  0  0  0  0
 21 71  1  6  0  0  0
 22 72  1  0  0  0  0
 23 24  1  0  0  0  0
 23 73  1  0  0  0  0
 23 74  1  0  0  0  0
 24 25  1  0  0  0  0
 24 29  1  0  0  0  0
 25 26  1  0  0  0  0
 25 75  1  0  0  0  0
 25 76  1  0  0  0  0
 26 27  1  0  0  0  0
 26 28  1  0  0  0  0
 26 77  1  0  0  0  0
 27 78  1  0  0  0  0
 27 79  1  0  0  0  0
 27 80  1  0  0  0  0
 28 81  1  0  0  0  0
 28 82  1  0  0  0  0
 28 83  1  0  0  0  0
 29 30  2  0  0  0  0
 29 31  2  0  0  0  0
 29 32  1  0  0  0  0
 32 33  2  0  0  0  0
 32 39  1  0  0  0  0
 33 34  1  0  0  0  0
 33 84  1  0  0  0  0
 34 35  2  0  0  0  0
 34 85  1  0  0  0  0
 35 36  1  0  0  0  0
 35 38  1  0  0  0  0
 36 37  1  0  0  0  0
 37 86  1  0  0  0  0
 37 87  1  0  0  0  0
 37 88  1  0  0  0  0
 38 39  2  0  0  0  0
 38 89  1  0  0  0  0
 39 90  1  0  0  0  0
 40 41  2  0  0  0  0
 40 42  1  0  0  0  0
 42 43  1  0  0  0  0
 43 44  1  0  0  0  0
 43 91  1  1  0  0  0
 44 45  1  0  0  0  0
 44 92  1  0  0  0  0
 44 93  1  0  0  0  0
 45 46  1  0  0  0  0
 46 47  1  0  0  0  0
 46 94  1  6  0  0  0
 47 48  1  0  0  0  0
 48 49  1  0  0  0  0
 48 95  1  0  0  0  0
 48 96  1  0  0  0  0
 49 97  1  0  0  0  0
 49 98  1  0  0  0  0
M  END
$$$$
