KIU
 OpenBabel04111919493D

 32 33  0  0  0  0  0  0  0  0999 V2000
   -1.5252   32.6791   76.1115 O   0  0  0  0  0  0  0  0  0  0  0  0
   -2.2195   33.7072   76.3449 C   0  0  0  0  0  0  0  0  0  0  0  0
   -2.5984   34.5603   75.4486 O   0  0  0  0  0  0  0  0  0  0  0  0
   -2.6389   33.9713   77.7628 C   0  0  0  0  0  0  0  0  0  0  0  0
   -3.3553   35.1397   78.0855 C   0  0  0  0  0  0  0  0  0  0  0  0
   -2.3223   33.0497   78.7810 C   0  0  0  0  0  0  0  0  0  0  0  0
   -2.6962   33.2871   80.1041 C   0  0  0  0  0  0  0  0  0  0  0  0
   -2.4002   32.3270   81.2231 C   0  0  0  0  0  0  0  0  0  0  0  0
   -2.4075   31.0870   80.9584 O   0  0  0  0  0  0  0  0  0  0  0  0
   -2.2299   32.8353   82.3832 O   0  0  0  0  0  0  0  0  0  0  0  0
   -3.3772   34.4545   80.3838 C   0  0  0  0  0  0  0  0  0  0  0  0
   -3.7117   35.3898   79.4109 C   0  0  0  0  0  0  0  0  0  0  0  0
   -4.3777   36.5645   79.6591 O   0  0  0  0  0  0  0  0  0  0  0  0
   -5.0529   36.5751   80.9070 C   0  0  0  0  0  0  0  0  0  0  0  0
   -6.4233   35.9628   80.8055 C   0  0  0  0  0  0  0  0  0  0  0  0
   -7.0708   35.6431   81.9988 C   0  0  0  0  0  0  0  0  0  0  0  0
   -7.0417   35.7198   79.5669 C   0  0  0  0  0  0  0  0  0  0  0  0
   -8.3214   35.1799   79.5090 C   0  0  0  0  0  0  0  0  0  0  0  0
   -8.9880   34.8866   80.6928 C   0  0  0  0  0  0  0  0  0  0  0  0
   -8.3462   35.1126   81.9148 C   0  0  0  0  0  0  0  0  0  0  0  0
   -9.0558   34.8538   83.1433 N   0  0  0  0  0  0  0  0  0  0  0  0
   -8.8065   33.8002   83.7314 O   0  0  0  0  0  0  0  0  0  0  0  0
   -9.8571   35.7222   83.5081 O   0  0  0  0  0  0  0  0  0  0  0  0
   -3.6253   35.8265   77.2948 H   0  0  0  0  0  0  0  0  0  0  0  0
   -1.7769   32.1351   78.5493 H   0  0  0  0  0  0  0  0  0  0  0  0
   -3.6383   34.5483   81.4348 H   0  0  0  0  0  0  0  0  0  0  0  0
   -5.1427   37.6055   81.2572 H   0  0  0  0  0  0  0  0  0  0  0  0
   -4.5131   36.0833   81.7100 H   0  0  0  0  0  0  0  0  0  0  0  0
   -6.5844   35.8059   82.9536 H   0  0  0  0  0  0  0  0  0  0  0  0
   -6.5093   35.9279   78.6391 H   0  0  0  0  0  0  0  0  0  0  0  0
   -8.7773   34.9972   78.5399 H   0  0  0  0  0  0  0  0  0  0  0  0
   -9.9959   34.4831   80.6605 H   0  0  0  0  0  0  0  0  0  0  0  0
  1  2  2  0  0  0  0
  2  3  1  0  0  0  0
  2  4  1  0  0  0  0
  4  5  2  0  0  0  0
  4  6  1  0  0  0  0
  5 12  1  0  0  0  0
  5 24  1  0  0  0  0
  6  7  2  0  0  0  0
  6 25  1  0  0  0  0
  7  8  1  0  0  0  0
  7 11  1  0  0  0  0
  8  9  2  0  0  0  0
  8 10  1  0  0  0  0
 11 12  2  0  0  0  0
 11 26  1  0  0  0  0
 12 13  1  0  0  0  0
 13 14  1  0  0  0  0
 14 15  1  0  0  0  0
 14 27  1  0  0  0  0
 14 28  1  0  0  0  0
 15 16  2  0  0  0  0
 15 17  1  0  0  0  0
 16 20  1  0  0  0  0
 16 29  1  0  0  0  0
 17 18  2  0  0  0  0
 17 30  1  0  0  0  0
 18 19  1  0  0  0  0
 18 31  1  0  0  0  0
 19 20  2  0  0  0  0
 19 32  1  0  0  0  0
 20 21  1  0  0  0  0
 21 22  2  0  0  0  0
 21 23  2  0  0  0  0
M  END
$$$$
