KMP
 OpenBabel04111918313D

 29 31  0  0  0  0  0  0  0  0999 V2000
   20.1857    0.9256   -0.8941 C   0  0  0  0  0  0  0  0  0  0  0  0
   21.3347    0.2030   -1.2357 C   0  0  0  0  0  0  0  0  0  0  0  0
   21.5528    0.0550   -2.5883 C   0  0  0  0  0  0  0  0  0  0  0  0
   20.6714    0.5838   -3.5451 C   0  0  0  0  0  0  0  0  0  0  0  0
   19.5471    1.2704   -3.1864 C   0  0  0  0  0  0  0  0  0  0  0  0
   19.3119    1.4455   -1.8548 C   0  0  0  0  0  0  0  0  0  0  0  0
   22.7510   -0.6737   -3.1208 C   0  0  0  0  0  0  0  0  0  0  0  0
   22.9483   -0.7682   -4.6104 C   0  0  0  0  0  0  0  0  0  0  0  0
   21.9549   -0.1642   -5.2872 C   0  0  0  0  0  0  0  0  0  0  0  0
   21.9094   -0.1299   -6.7152 C   0  0  0  0  0  0  0  0  0  0  0  0
   21.4407   -1.2480   -7.3774 C   0  0  0  0  0  0  0  0  0  0  0  0
   21.3570   -1.2003   -8.7479 C   0  0  0  0  0  0  0  0  0  0  0  0
   21.6901   -0.0227   -9.4012 C   0  0  0  0  0  0  0  0  0  0  0  0
   22.0884    1.1263   -8.7199 C   0  0  0  0  0  0  0  0  0  0  0  0
   22.2018    1.0723   -7.3566 C   0  0  0  0  0  0  0  0  0  0  0  0
   20.8326    0.4726   -4.8590 O   0  3  0  0  0  0  0  0  0  0  0  0
   23.5878   -1.1949   -2.3717 O   0  0  0  0  0  0  0  0  0  0  0  0
   21.5806    0.0028  -10.7568 O   0  0  0  0  0  0  0  0  0  0  0  0
   23.9903   -1.3752   -5.0180 O   0  0  0  0  0  0  0  0  0  0  0  0
   18.1881    2.1437   -1.5092 O   0  0  0  0  0  0  0  0  0  0  0  0
   22.0727   -0.2456   -0.2810 O   0  0  0  0  0  0  0  0  0  0  0  0
   20.0313    1.0539    0.1692 H   0  0  0  0  0  0  0  0  0  0  0  0
   18.8813    1.6730   -3.9385 H   0  0  0  0  0  0  0  0  0  0  0  0
   21.1365   -2.1343   -6.8207 H   0  0  0  0  0  0  0  0  0  0  0  0
   21.0242   -2.0666   -9.3085 H   0  0  0  0  0  0  0  0  0  0  0  0
   22.3248    2.0426   -9.2361 H   0  0  0  0  0  0  0  0  0  0  0  0
   22.4998    1.9382   -6.7606 H   0  0  0  0  0  0  0  0  0  0  0  0
   20.9779    0.7427  -10.9256 H   0  0  0  0  0  0  0  0  0  0  0  0
   18.2171    2.1318   -0.5478 H   0  0  0  0  0  0  0  0  0  0  0  0
  1  2  2  0  0  0  0
  1  6  1  0  0  0  0
  1 22  1  0  0  0  0
  2  3  1  0  0  0  0
  2 21  1  0  0  0  0
  3  4  2  0  0  0  0
  3  7  1  0  0  0  0
  4  5  1  0  0  0  0
  4 16  1  0  0  0  0
  5  6  2  0  0  0  0
  5 23  1  0  0  0  0
  6 20  1  0  0  0  0
  7  8  1  0  0  0  0
  7 17  2  0  0  0  0
  8  9  2  0  0  0  0
  8 19  1  0  0  0  0
  9 10  1  0  0  0  0
  9 16  1  0  0  0  0
 10 11  2  0  0  0  0
 10 15  1  0  0  0  0
 11 12  1  0  0  0  0
 11 24  1  0  0  0  0
 12 13  2  0  0  0  0
 12 25  1  0  0  0  0
 13 14  1  0  0  0  0
 13 18  1  0  0  0  0
 14 15  2  0  0  0  0
 14 26  1  0  0  0  0
 15 27  1  0  0  0  0
 18 28  1  0  0  0  0
 20 29  1  0  0  0  0
M  CHG  1  16   1
M  END
$$$$
