KR5
 OpenBabel04111921163D

 40 41  0  0  0  0  0  0  0  0999 V2000
   -1.4767    7.5476   14.8097 O   0  0  0  0  0  0  0  0  0  0  0  0
   -1.9062    7.8568   13.6985 C   0  0  0  0  0  0  0  0  0  0  0  0
   -1.8923    9.2355   13.3502 N   0  3  0  0  0  0  0  0  0  0  0  0
   -1.2226   10.2038   14.0879 C   0  0  0  0  0  0  0  0  0  0  0  0
   -0.3743    9.8381   15.2632 C   0  0  0  0  0  0  0  0  0  0  0  0
   -1.4168   11.4193   13.4734 C   0  0  0  0  0  0  0  0  0  0  0  0
   -2.2644   11.1225   12.3757 C   0  0  0  0  0  0  0  0  0  0  0  0
   -2.8191   12.1102   11.3907 C   0  0  0  0  0  0  0  0  0  0  0  0
   -2.5526    9.8024   12.2891 N   0  0  0  0  0  0  0  0  0  0  0  0
   -2.2833    6.8554   12.6425 C   0  0  0  0  0  0  0  0  0  0  0  0
   -2.6198    5.5197   13.2860 C   0  0  0  0  0  0  0  0  0  0  0  0
   -3.9596    5.5233   13.8529 N   0  0  0  0  0  0  0  0  0  0  0  0
   -4.4132    4.4265   14.5692 C   0  0  0  0  0  0  0  0  0  0  0  0
   -3.5605    3.3811   14.9530 C   0  0  0  0  0  0  0  0  0  0  0  0
   -4.0340    2.2723   15.6571 C   0  0  0  0  0  0  0  0  0  0  0  0
   -5.7712    4.3346   14.8905 C   0  0  0  0  0  0  0  0  0  0  0  0
   -6.2562    3.2276   15.5862 C   0  0  0  0  0  0  0  0  0  0  0  0
   -5.3885    2.2009   15.9592 C   0  0  0  0  0  0  0  0  0  0  0  0
   -6.0106    0.8265   16.8756 S   0  0  0  0  0  0  0  0  0  0  0  0
   -7.4516    0.8201   16.6817 O   0  0  0  0  0  0  0  0  0  0  0  0
   -5.4420    0.8649   18.1729 O   0  0  0  0  0  0  0  0  0  0  0  0
   -5.4404   -0.5246   16.0849 N   0  0  0  0  0  0  0  0  0  0  0  0
    0.0385   10.7326   15.7327 H   0  0  0  0  0  0  0  0  0  0  0  0
    0.4582    9.1994   14.9277 H   0  0  0  0  0  0  0  0  0  0  0  0
   -0.9519    9.2933   16.0237 H   0  0  0  0  0  0  0  0  0  0  0  0
   -0.9982   12.3856   13.7581 H   0  0  0  0  0  0  0  0  0  0  0  0
   -3.4416   11.5941   10.6483 H   0  0  0  0  0  0  0  0  0  0  0  0
   -2.0111   12.6370   10.8612 H   0  0  0  0  0  0  0  0  0  0  0  0
   -3.4412   12.8613   11.9018 H   0  0  0  0  0  0  0  0  0  0  0  0
   -1.4126    6.7181   11.9827 H   0  0  0  0  0  0  0  0  0  0  0  0
   -3.1340    7.2112   12.0756 H   0  0  0  0  0  0  0  0  0  0  0  0
   -1.8757    5.3006   14.0628 H   0  0  0  0  0  0  0  0  0  0  0  0
   -2.5557    4.7411   12.5116 H   0  0  0  0  0  0  0  0  0  0  0  0
   -4.5743    6.3255   13.7555 H   0  0  0  0  0  0  0  0  0  0  0  0
   -2.5012    3.4464   14.7138 H   0  0  0  0  0  0  0  0  0  0  0  0
   -3.3580    1.4866   15.9651 H   0  0  0  0  0  0  0  0  0  0  0  0
   -6.4501    5.1333   14.6003 H   0  0  0  0  0  0  0  0  0  0  0  0
   -7.3134    3.1793   15.8367 H   0  0  0  0  0  0  0  0  0  0  0  0
   -5.6955   -1.4422   16.4446 H   0  0  0  0  0  0  0  0  0  0  0  0
   -4.8492   -0.4332   15.2692 H   0  0  0  0  0  0  0  0  0  0  0  0
  1  2  2  0  0  0  0
  2  3  1  0  0  0  0
  2 10  1  0  0  0  0
  3  4  1  0  0  0  0
  3  9  1  0  0  0  0
  4  5  1  0  0  0  0
  4  6  2  0  0  0  0
  5 23  1  0  0  0  0
  5 24  1  0  0  0  0
  5 25  1  0  0  0  0
  6  7  1  0  0  0  0
  6 26  1  0  0  0  0
  7  8  1  0  0  0  0
  7  9  2  0  0  0  0
  8 27  1  0  0  0  0
  8 28  1  0  0  0  0
  8 29  1  0  0  0  0
 10 11  1  0  0  0  0
 10 30  1  0  0  0  0
 10 31  1  0  0  0  0
 11 12  1  0  0  0  0
 11 32  1  0  0  0  0
 11 33  1  0  0  0  0
 12 13  1  0  0  0  0
 12 34  1  0  0  0  0
 13 14  2  0  0  0  0
 13 16  1  0  0  0  0
 14 15  1  0  0  0  0
 14 35  1  0  0  0  0
 15 18  2  0  0  0  0
 15 36  1  0  0  0  0
 16 17  2  0  0  0  0
 16 37  1  0  0  0  0
 17 18  1  0  0  0  0
 17 38  1  0  0  0  0
 18 19  1  0  0  0  0
 19 20  2  0  0  0  0
 19 21  2  0  0  0  0
 19 22  1  0  0  0  0
 22 39  1  0  0  0  0
 22 40  1  0  0  0  0
M  CHG  1   3   1
M  END
$$$$
