LDU
 OpenBabel04111922073D

 21 21  0  0  1  0  0  0  0  0999 V2000
   78.5566   87.5155   20.5920 O   0  0  0  0  0  0  0  0  0  0  0  0
   78.9422   88.8697   20.3654 C   0  0  2  0  0  0  0  0  0  0  0  0
   77.7678   89.8147   20.5891 C   0  0  2  0  0  0  0  0  0  0  0  0
   77.1137   89.5472   21.8127 O   0  0  0  0  0  0  0  0  0  0  0  0
   76.8599   89.4888   19.4026 C   0  0  0  0  0  0  0  0  0  0  0  0
   77.8076   89.1746   18.2845 N   0  3  0  0  0  0  0  0  0  0  0  0
   79.2014   89.0903   18.8779 C   0  0  2  0  0  0  0  0  0  0  0  0
   79.9981   87.9860   18.2065 C   0  0  0  0  0  0  0  0  0  0  0  0
   80.3830   88.4349   16.9047 O   0  0  0  0  0  0  0  0  0  0  0  0
   78.2248   87.4460   21.5097 H   0  0  0  0  0  0  0  0  0  0  0  0
   79.8137   89.0970   20.9828 H   0  0  0  0  0  0  0  0  0  0  0  0
   78.0921   90.8607   20.5458 H   0  0  0  0  0  0  0  0  0  0  0  0
   77.7257   89.7408   22.5469 H   0  0  0  0  0  0  0  0  0  0  0  0
   76.2330   90.3408   19.1083 H   0  0  0  0  0  0  0  0  0  0  0  0
   76.2353   88.6151   19.5846 H   0  0  0  0  0  0  0  0  0  0  0  0
   77.5537   88.2641   17.8584 H   0  0  0  0  0  0  0  0  0  0  0  0
   79.6544   90.0799   18.7061 H   0  0  0  0  0  0  0  0  0  0  0  0
   79.4057   87.0807   18.0832 H   0  0  0  0  0  0  0  0  0  0  0  0
   80.8980   87.7463   18.7911 H   0  0  0  0  0  0  0  0  0  0  0  0
   81.0243   89.1676   16.9881 H   0  0  0  0  0  0  0  0  0  0  0  0
   77.7709   89.8723   17.5254 H   0  0  0  0  0  0  0  0  0  0  0  0
  1  2  1  0  0  0  0
  1 10  1  0  0  0  0
  2  3  1  0  0  0  0
  2  7  1  0  0  0  0
  2 11  1  1  0  0  0
  3  4  1  0  0  0  0
  3  5  1  0  0  0  0
  3 12  1  6  0  0  0
  4 13  1  0  0  0  0
  5  6  1  0  0  0  0
  5 14  1  0  0  0  0
  5 15  1  0  0  0  0
  6  7  1  0  0  0  0
  6 16  1  0  0  0  0
  6 21  1  0  0  0  0
  7  8  1  0  0  0  0
  7 17  1  6  0  0  0
  8  9  1  0  0  0  0
  8 18  1  0  0  0  0
  8 19  1  0  0  0  0
  9 20  1  0  0  0  0
M  CHG  1   6   1
M  END
$$$$
