LM3
 OpenBabel04111918523D

 43 46  0  0  0  0  0  0  0  0999 V2000
    0.2041    5.2953   21.4993 C   0  0  0  0  0  0  0  0  0  0  0  0
   -0.1355    4.0278   22.1363 N   0  0  0  0  0  0  0  0  0  0  0  0
    0.5055    3.7310   23.4017 C   0  0  0  0  0  0  0  0  0  0  0  0
   -1.1668    3.3045   21.5679 C   0  0  0  0  0  0  0  0  0  0  0  0
   -1.8659    3.8534   20.5535 N   0  0  0  0  0  0  0  0  0  0  0  0
   -2.9029    3.1909   19.9282 N   0  0  0  0  0  0  0  0  0  0  0  0
   -3.2309    1.9344   20.2919 C   0  0  0  0  0  0  0  0  0  0  0  0
   -2.5321    1.2837   21.3159 C   0  0  0  0  0  0  0  0  0  0  0  0
   -2.7959   -0.1164   21.7153 C   0  0  0  0  0  0  0  0  0  0  0  0
   -3.0749   -0.4602   23.0445 C   0  0  0  0  0  0  0  0  0  0  0  0
   -3.3252   -1.7889   23.3597 C   0  0  0  0  0  0  0  0  0  0  0  0
   -3.3206   -2.7895   22.4576 N   0  0  0  0  0  0  0  0  0  0  0  0
   -3.0500   -2.4494   21.1811 C   0  0  0  0  0  0  0  0  0  0  0  0
   -2.7760   -1.1538   20.7725 C   0  0  0  0  0  0  0  0  0  0  0  0
   -1.5041    2.0115   21.9554 C   0  0  0  0  0  0  0  0  0  0  0  0
   -4.3779    1.3641   19.5581 C   0  0  0  0  0  0  0  0  0  0  0  0
   -4.3472    1.1238   18.1490 C   0  0  0  0  0  0  0  0  0  0  0  0
   -3.2288    1.3957   17.3223 C   0  0  0  0  0  0  0  0  0  0  0  0
   -3.2462    1.1450   15.9472 C   0  0  0  0  0  0  0  0  0  0  0  0
   -4.3824    0.6123   15.3568 C   0  0  0  0  0  0  0  0  0  0  0  0
   -5.4977    0.3243   16.1407 C   0  0  0  0  0  0  0  0  0  0  0  0
   -5.4945    0.5694   17.5236 C   0  0  0  0  0  0  0  0  0  0  0  0
   -6.6315    0.2619   18.2866 C   0  0  0  0  0  0  0  0  0  0  0  0
   -6.6574    0.4960   19.6555 C   0  0  0  0  0  0  0  0  0  0  0  0
   -5.5459    1.0462   20.2826 C   0  0  0  0  0  0  0  0  0  0  0  0
    0.9991    5.8127   22.0489 H   0  0  0  0  0  0  0  0  0  0  0  0
   -0.6551    5.9747   21.4616 H   0  0  0  0  0  0  0  0  0  0  0  0
    0.5764    5.1261   20.4824 H   0  0  0  0  0  0  0  0  0  0  0  0
    0.1587    2.8163   23.8863 H   0  0  0  0  0  0  0  0  0  0  0  0
    0.3370    4.5502   24.1101 H   0  0  0  0  0  0  0  0  0  0  0  0
    1.5863    3.6344   23.2504 H   0  0  0  0  0  0  0  0  0  0  0  0
   -3.1127    0.2889   23.8288 H   0  0  0  0  0  0  0  0  0  0  0  0
   -3.5475   -2.0909   24.3795 H   0  0  0  0  0  0  0  0  0  0  0  0
   -3.0596   -3.2682   20.4670 H   0  0  0  0  0  0  0  0  0  0  0  0
   -2.5602   -0.9649   19.7251 H   0  0  0  0  0  0  0  0  0  0  0  0
   -0.9403    1.5150   22.7366 H   0  0  0  0  0  0  0  0  0  0  0  0
   -2.3197    1.8225   17.7434 H   0  0  0  0  0  0  0  0  0  0  0  0
   -2.3731    1.3765   15.3438 H   0  0  0  0  0  0  0  0  0  0  0  0
   -4.4052    0.4225   14.2865 H   0  0  0  0  0  0  0  0  0  0  0  0
   -6.3783   -0.0942   15.6584 H   0  0  0  0  0  0  0  0  0  0  0  0
   -7.5129   -0.1646   17.8127 H   0  0  0  0  0  0  0  0  0  0  0  0
   -7.5443    0.2526   20.2348 H   0  0  0  0  0  0  0  0  0  0  0  0
   -5.5891    1.2297   21.3551 H   0  0  0  0  0  0  0  0  0  0  0  0
  1  2  1  0  0  0  0
  1 26  1  0  0  0  0
  1 27  1  0  0  0  0
  1 28  1  0  0  0  0
  2  3  1  0  0  0  0
  2  4  1  0  0  0  0
  3 29  1  0  0  0  0
  3 30  1  0  0  0  0
  3 31  1  0  0  0  0
  4  5  2  0  0  0  0
  4 15  1  0  0  0  0
  5  6  1  0  0  0  0
  6  7  2  0  0  0  0
  7  8  1  0  0  0  0
  7 16  1  0  0  0  0
  8  9  1  0  0  0  0
  8 15  2  0  0  0  0
  9 10  2  0  0  0  0
  9 14  1  0  0  0  0
 10 11  1  0  0  0  0
 10 32  1  0  0  0  0
 11 12  2  0  0  0  0
 11 33  1  0  0  0  0
 12 13  1  0  0  0  0
 13 14  2  0  0  0  0
 13 34  1  0  0  0  0
 14 35  1  0  0  0  0
 15 36  1  0  0  0  0
 16 17  2  0  0  0  0
 16 25  1  0  0  0  0
 17 18  1  0  0  0  0
 17 22  1  0  0  0  0
 18 19  2  0  0  0  0
 18 37  1  0  0  0  0
 19 20  1  0  0  0  0
 19 38  1  0  0  0  0
 20 21  2  0  0  0  0
 20 39  1  0  0  0  0
 21 22  1  0  0  0  0
 21 40  1  0  0  0  0
 22 23  2  0  0  0  0
 23 24  1  0  0  0  0
 23 41  1  0  0  0  0
 24 25  2  0  0  0  0
 24 42  1  0  0  0  0
 25 43  1  0  0  0  0
M  END
$$$$
