LM4
 OpenBabel04111918523D

 43 46  0  0  0  0  0  0  0  0999 V2000
    0.8831    4.6402   22.6560 C   0  0  0  0  0  0  0  0  0  0  0  0
    0.3593    3.3623   23.1234 N   0  0  0  0  0  0  0  0  0  0  0  0
    1.0400    2.7362   24.2401 C   0  0  0  0  0  0  0  0  0  0  0  0
   -0.6054    2.7641   22.3334 C   0  0  0  0  0  0  0  0  0  0  0  0
   -1.1060    3.4371   21.2773 N   0  0  0  0  0  0  0  0  0  0  0  0
   -2.0890    2.9042   20.4640 N   0  0  0  0  0  0  0  0  0  0  0  0
   -2.5892    1.6746   20.7053 C   0  0  0  0  0  0  0  0  0  0  0  0
   -2.1040    0.9031   21.7671 C   0  0  0  0  0  0  0  0  0  0  0  0
   -2.5286   -0.4868   22.0569 C   0  0  0  0  0  0  0  0  0  0  0  0
   -2.5758   -1.4648   21.0550 C   0  0  0  0  0  0  0  0  0  0  0  0
   -2.9746   -2.7529   21.3780 C   0  0  0  0  0  0  0  0  0  0  0  0
   -3.2997   -3.1452   22.6249 N   0  0  0  0  0  0  0  0  0  0  0  0
   -3.2321   -2.2058   23.5886 C   0  0  0  0  0  0  0  0  0  0  0  0
   -2.8676   -0.8874   23.3576 C   0  0  0  0  0  0  0  0  0  0  0  0
   -1.1080    1.4919   22.5754 C   0  0  0  0  0  0  0  0  0  0  0  0
   -3.6198    1.2405   19.7490 C   0  0  0  0  0  0  0  0  0  0  0  0
   -3.3253    1.1902   18.3765 C   0  0  0  0  0  0  0  0  0  0  0  0
   -4.2475    0.6963   17.4416 C   0  0  0  0  0  0  0  0  0  0  0  0
   -3.9308    0.6171   16.0758 C   0  0  0  0  0  0  0  0  0  0  0  0
   -4.8529    0.1109   15.1602 C   0  0  0  0  0  0  0  0  0  0  0  0
   -6.1025   -0.3192   15.5970 C   0  0  0  0  0  0  0  0  0  0  0  0
   -6.4326   -0.2464   16.9513 C   0  0  0  0  0  0  0  0  0  0  0  0
   -5.5130    0.2569   17.8851 C   0  0  0  0  0  0  0  0  0  0  0  0
   -5.8249    0.3337   19.2505 C   0  0  0  0  0  0  0  0  0  0  0  0
   -4.8906    0.8244   20.1686 C   0  0  0  0  0  0  0  0  0  0  0  0
    1.6658    5.0131   23.3274 H   0  0  0  0  0  0  0  0  0  0  0  0
    0.0960    5.4010   22.6272 H   0  0  0  0  0  0  0  0  0  0  0  0
    1.3327    4.5452   21.6604 H   0  0  0  0  0  0  0  0  0  0  0  0
    0.6108    1.7917   24.5726 H   0  0  0  0  0  0  0  0  0  0  0  0
    1.0092    3.4071   25.1072 H   0  0  0  0  0  0  0  0  0  0  0  0
    2.0901    2.5528   23.9885 H   0  0  0  0  0  0  0  0  0  0  0  0
   -2.3122   -1.2411   20.0261 H   0  0  0  0  0  0  0  0  0  0  0  0
   -3.0421   -3.5212   20.6132 H   0  0  0  0  0  0  0  0  0  0  0  0
   -3.4860   -2.5495   24.5875 H   0  0  0  0  0  0  0  0  0  0  0  0
   -2.8509   -0.1899   24.1896 H   0  0  0  0  0  0  0  0  0  0  0  0
   -0.7172    0.9022   23.3940 H   0  0  0  0  0  0  0  0  0  0  0  0
   -2.3432    1.5232   18.0362 H   0  0  0  0  0  0  0  0  0  0  0  0
   -2.9588    0.9484   15.7164 H   0  0  0  0  0  0  0  0  0  0  0  0
   -4.5947    0.0535   14.1056 H   0  0  0  0  0  0  0  0  0  0  0  0
   -6.8229   -0.7119   14.8830 H   0  0  0  0  0  0  0  0  0  0  0  0
   -7.4139   -0.5877   17.2732 H   0  0  0  0  0  0  0  0  0  0  0  0
   -6.7935   -0.0006   19.6153 H   0  0  0  0  0  0  0  0  0  0  0  0
   -5.1613    0.8587   21.2218 H   0  0  0  0  0  0  0  0  0  0  0  0
  1  2  1  0  0  0  0
  1 26  1  0  0  0  0
  1 27  1  0  0  0  0
  1 28  1  0  0  0  0
  2  3  1  0  0  0  0
  2  4  1  0  0  0  0
  3 29  1  0  0  0  0
  3 30  1  0  0  0  0
  3 31  1  0  0  0  0
  4  5  2  0  0  0  0
  4 15  1  0  0  0  0
  5  6  1  0  0  0  0
  6  7  2  0  0  0  0
  7  8  1  0  0  0  0
  7 16  1  0  0  0  0
  8  9  1  0  0  0  0
  8 15  2  0  0  0  0
  9 10  2  0  0  0  0
  9 14  1  0  0  0  0
 10 11  1  0  0  0  0
 10 32  1  0  0  0  0
 11 12  2  0  0  0  0
 11 33  1  0  0  0  0
 12 13  1  0  0  0  0
 13 14  2  0  0  0  0
 13 34  1  0  0  0  0
 14 35  1  0  0  0  0
 15 36  1  0  0  0  0
 16 17  2  0  0  0  0
 16 25  1  0  0  0  0
 17 18  1  0  0  0  0
 17 37  1  0  0  0  0
 18 19  2  0  0  0  0
 18 23  1  0  0  0  0
 19 20  1  0  0  0  0
 19 38  1  0  0  0  0
 20 21  2  0  0  0  0
 20 39  1  0  0  0  0
 21 22  1  0  0  0  0
 21 40  1  0  0  0  0
 22 23  2  0  0  0  0
 22 41  1  0  0  0  0
 23 24  1  0  0  0  0
 24 25  2  0  0  0  0
 24 42  1  0  0  0  0
 25 43  1  0  0  0  0
M  END
$$$$
