LOC
 OpenBabel04111920143D

 54 56  0  0  1  0  0  0  0  0999 V2000
  -14.5355    6.0373   -5.7607 O   0  0  0  0  0  0  0  0  0  0  0  0
  -13.8189    6.4099   -4.8794 C   0  0  0  0  0  0  0  0  0  0  0  0
  -12.3494    6.0750   -4.8240 C   0  0  0  0  0  0  0  0  0  0  0  0
  -14.2652    7.1848   -3.8297 N   0  0  0  0  0  0  0  0  0  0  0  0
  -13.4036    7.8251   -2.8483 C   0  0  2  0  0  0  0  0  0  0  0  0
  -13.1841    6.9626   -1.6008 C   0  0  0  0  0  0  0  0  0  0  0  0
  -14.1287    6.1142   -1.2247 C   0  0  0  0  0  0  0  0  0  0  0  0
  -13.9134    9.2164   -2.5287 C   0  0  0  0  0  0  0  0  0  0  0  0
  -13.0741    9.9248   -1.4753 C   0  0  0  0  0  0  0  0  0  0  0  0
  -11.5975    9.6369   -1.6171 C   0  0  0  0  0  0  0  0  0  0  0  0
  -10.7814   10.6792   -2.0647 C   0  0  0  0  0  0  0  0  0  0  0  0
   -9.4130   10.5030   -2.2255 C   0  0  0  0  0  0  0  0  0  0  0  0
   -8.8497    9.2456   -1.9367 C   0  0  0  0  0  0  0  0  0  0  0  0
   -9.6591    8.1609   -1.5648 C   0  0  0  0  0  0  0  0  0  0  0  0
   -9.0720    6.9416   -1.2803 O   0  0  0  0  0  0  0  0  0  0  0  0
   -9.0492    6.0712   -2.4135 C   0  0  0  0  0  0  0  0  0  0  0  0
   -7.4995    9.0204   -2.1182 O   0  0  0  0  0  0  0  0  0  0  0  0
   -6.7178    9.4688   -1.0087 C   0  0  0  0  0  0  0  0  0  0  0  0
   -8.5674   11.5018   -2.6426 O   0  0  0  0  0  0  0  0  0  0  0  0
   -9.0484   12.8275   -2.8746 C   0  0  0  0  0  0  0  0  0  0  0  0
  -11.0396    8.3630   -1.3511 C   0  0  0  0  0  0  0  0  0  0  0  0
  -11.9350    7.2550   -0.8882 C   0  0  0  0  0  0  0  0  0  0  0  0
  -11.4889    6.6858    0.2503 C   0  0  0  0  0  0  0  0  0  0  0  0
  -11.9932    5.5932    1.0173 C   0  0  0  0  0  0  0  0  0  0  0  0
  -13.1383    4.9072    0.9268 C   0  0  0  0  0  0  0  0  0  0  0  0
  -14.2118    5.1801   -0.0761 C   0  0  0  0  0  0  0  0  0  0  0  0
  -15.2720    4.5543    0.0171 O   0  0  0  0  0  0  0  0  0  0  0  0
  -13.4197    3.8556    1.8188 O   0  0  0  0  0  0  0  0  0  0  0  0
  -12.3420    3.2013    2.4931 C   0  0  0  0  0  0  0  0  0  0  0  0
  -11.8700    6.4577   -3.9345 H   0  0  0  0  0  0  0  0  0  0  0  0
  -11.8538    6.5091   -5.6852 H   0  0  0  0  0  0  0  0  0  0  0  0
  -12.2263    4.9989   -4.7763 H   0  0  0  0  0  0  0  0  0  0  0  0
  -15.2675    7.3228   -3.7860 H   0  0  0  0  0  0  0  0  0  0  0  0
  -12.4425    7.9780   -3.3382 H   0  0  0  0  0  0  0  0  0  0  0  0
  -15.0318    6.0804   -1.8445 H   0  0  0  0  0  0  0  0  0  0  0  0
  -14.9459    9.1471   -2.1782 H   0  0  0  0  0  0  0  0  0  0  0  0
  -13.9042    9.8084   -3.4536 H   0  0  0  0  0  0  0  0  0  0  0  0
  -13.4029    9.6231   -0.4749 H   0  0  0  0  0  0  0  0  0  0  0  0
  -13.2398   11.0053   -1.5624 H   0  0  0  0  0  0  0  0  0  0  0  0
  -11.2336   11.6450   -2.2760 H   0  0  0  0  0  0  0  0  0  0  0  0
   -8.5637    5.1322   -2.1184 H   0  0  0  0  0  0  0  0  0  0  0  0
   -8.4767    6.5125   -3.2359 H   0  0  0  0  0  0  0  0  0  0  0  0
  -10.0639    5.8337   -2.7516 H   0  0  0  0  0  0  0  0  0  0  0  0
   -5.6605    9.2698   -1.2306 H   0  0  0  0  0  0  0  0  0  0  0  0
   -6.9835    8.9229   -0.0947 H   0  0  0  0  0  0  0  0  0  0  0  0
   -6.8352   10.5467   -0.8457 H   0  0  0  0  0  0  0  0  0  0  0  0
   -8.1955   13.4453   -3.1917 H   0  0  0  0  0  0  0  0  0  0  0  0
   -9.4632   13.2741   -1.9610 H   0  0  0  0  0  0  0  0  0  0  0  0
   -9.7969   12.8541   -3.6771 H   0  0  0  0  0  0  0  0  0  0  0  0
  -10.5725    7.1082    0.6695 H   0  0  0  0  0  0  0  0  0  0  0  0
  -11.3367    5.2851    1.8185 H   0  0  0  0  0  0  0  0  0  0  0  0
  -12.7403    2.4217    3.1545 H   0  0  0  0  0  0  0  0  0  0  0  0
  -11.7741    3.8980    3.1231 H   0  0  0  0  0  0  0  0  0  0  0  0
  -11.6709    2.7260    1.7658 H   0  0  0  0  0  0  0  0  0  0  0  0
  1  2  2  0  0  0  0
  2  3  1  0  0  0  0
  2  4  1  0  0  0  0
  3 30  1  0  0  0  0
  3 31  1  0  0  0  0
  3 32  1  0  0  0  0
  4  5  1  0  0  0  0
  4 33  1  0  0  0  0
  5  6  1  0  0  0  0
  5  8  1  0  0  0  0
  5 34  1  6  0  0  0
  6  7  2  0  0  0  0
  6 22  1  0  0  0  0
  7 26  1  0  0  0  0
  7 35  1  0  0  0  0
  8  9  1  0  0  0  0
  8 36  1  0  0  0  0
  8 37  1  0  0  0  0
  9 10  1  0  0  0  0
  9 38  1  0  0  0  0
  9 39  1  0  0  0  0
 10 11  2  0  0  0  0
 10 21  1  0  0  0  0
 11 12  1  0  0  0  0
 11 40  1  0  0  0  0
 12 13  2  0  0  0  0
 12 19  1  0  0  0  0
 13 14  1  0  0  0  0
 13 17  1  0  0  0  0
 14 15  1  0  0  0  0
 14 21  2  0  0  0  0
 15 16  1  0  0  0  0
 16 41  1  0  0  0  0
 16 42  1  0  0  0  0
 16 43  1  0  0  0  0
 17 18  1  0  0  0  0
 18 44  1  0  0  0  0
 18 45  1  0  0  0  0
 18 46  1  0  0  0  0
 19 20  1  0  0  0  0
 20 47  1  0  0  0  0
 20 48  1  0  0  0  0
 20 49  1  0  0  0  0
 21 22  1  0  0  0  0
 22 23  2  0  0  0  0
 23 24  1  0  0  0  0
 23 50  1  0  0  0  0
 24 25  2  0  0  0  0
 24 51  1  0  0  0  0
 25 26  1  0  0  0  0
 25 28  1  0  0  0  0
 26 27  2  0  0  0  0
 28 29  1  0  0  0  0
 29 52  1  0  0  0  0
 29 53  1  0  0  0  0
 29 54  1  0  0  0  0
M  END
$$$$
