LSA
 OpenBabel04111921433D

 19 20  0  0  1  0  0  0  0  0999 V2000
   -1.6398    4.9849   85.3801 C   0  0  0  0  0  0  0  0  0  0  0  0
   -2.1246    4.0118   86.2582 C   0  0  0  0  0  0  0  0  0  0  0  0
   -1.7966    2.6961   85.9700 C   0  0  0  0  0  0  0  0  0  0  0  0
   -0.6154    0.8626   84.9515 C   0  0  1  0  0  0  0  0  0  0  0  0
   -0.8550    4.6306   84.2687 C   0  0  0  0  0  0  0  0  0  0  0  0
   -2.2612    1.2609   86.8597 S   0  0  0  0  0  0  0  0  0  0  0  0
   -1.6674    0.1374   85.6737 N   0  0  0  0  0  0  0  0  0  0  0  0
   -0.2904    0.2480   83.7243 O   0  0  0  0  0  0  0  0  0  0  0  0
   -1.0157    2.3131   84.8620 C   0  0  0  0  0  0  0  0  0  0  0  0
   -0.5745    3.2895   83.9812 C   0  0  0  0  0  0  0  0  0  0  0  0
   -1.4517    1.1740   88.0481 O   0  0  0  0  0  0  0  0  0  0  0  0
   -3.7074    1.1327   86.8535 O   0  0  0  0  0  0  0  0  0  0  0  0
   -1.8408    6.0456   85.5675 H   0  0  0  0  0  0  0  0  0  0  0  0
   -2.6907    4.3006   87.1409 H   0  0  0  0  0  0  0  0  0  0  0  0
    0.2982    0.8550   85.5459 H   0  0  0  0  0  0  0  0  0  0  0  0
   -0.5184    5.4075   83.5757 H   0  0  0  0  0  0  0  0  0  0  0  0
   -1.3686   -0.7320   86.1223 H   0  0  0  0  0  0  0  0  0  0  0  0
   -0.9665   -0.3992   83.4695 H   0  0  0  0  0  0  0  0  0  0  0  0
    0.0480    3.0120   83.1247 H   0  0  0  0  0  0  0  0  0  0  0  0
  1  2  2  0  0  0  0
  1  5  1  0  0  0  0
  1 13  1  0  0  0  0
  2  3  1  0  0  0  0
  2 14  1  0  0  0  0
  3  6  1  0  0  0  0
  3  9  2  0  0  0  0
  4  7  1  0  0  0  0
  4  8  1  0  0  0  0
  4  9  1  0  0  0  0
  4 15  1  1  0  0  0
  5 10  2  0  0  0  0
  5 16  1  0  0  0  0
  6  7  1  0  0  0  0
  6 11  2  0  0  0  0
  6 12  2  0  0  0  0
  7 17  1  0  0  0  0
  8 18  1  0  0  0  0
  9 10  1  0  0  0  0
 10 19  1  0  0  0  0
M  END
$$$$
