M0Y
 OpenBabel04111920163D

 35 37  0  0  0  0  0  0  0  0999 V2000
   10.6444    8.7898   22.7365 C   0  0  0  0  0  0  0  0  0  0  0  0
    9.9687    8.1130   23.7378 C   0  0  0  0  0  0  0  0  0  0  0  0
    8.8895    7.2896   23.4116 C   0  0  0  0  0  0  0  0  0  0  0  0
    8.4560    7.0939   22.0757 C   0  0  0  0  0  0  0  0  0  0  0  0
    9.1433    7.8333   21.0725 C   0  0  0  0  0  0  0  0  0  0  0  0
   10.2309    8.6549   21.4127 C   0  0  0  0  0  0  0  0  0  0  0  0
    8.7231    7.7564   19.7301 C   0  0  0  0  0  0  0  0  0  0  0  0
    7.6227    6.9840   19.3645 C   0  0  0  0  0  0  0  0  0  0  0  0
    6.9302    6.2597   20.3337 C   0  0  0  0  0  0  0  0  0  0  0  0
    7.3538    6.2734   21.6753 C   0  0  0  0  0  0  0  0  0  0  0  0
    6.6634    5.4143   22.5878 N   0  3  0  0  0  0  0  0  0  0  0  0
    7.2071    4.6626   23.6077 C   0  0  0  0  0  0  0  0  0  0  0  0
    6.1896    3.9644   24.2064 C   0  0  0  0  0  0  0  0  0  0  0  0
    5.0180    4.3541   23.4808 C   0  0  0  0  0  0  0  0  0  0  0  0
    5.3232    5.1801   22.4572 N   0  0  0  0  0  0  0  0  0  0  0  0
    3.6430    3.9152   23.7738 C   0  0  0  0  0  0  0  0  0  0  0  0
    3.3684    3.1976   24.7343 O   0  0  0  0  0  0  0  0  0  0  0  0
    2.6483    4.3371   22.9280 N   0  0  0  0  0  0  0  0  0  0  0  0
    6.2723    3.0584   25.2627 N   0  0  0  0  0  0  0  0  0  0  0  0
    7.4083    2.7289   25.9605 C   0  0  0  0  0  0  0  0  0  0  0  0
    8.5344    3.1823   25.8091 O   0  0  0  0  0  0  0  0  0  0  0  0
    7.1906    1.7810   26.9193 N   0  0  0  0  0  0  0  0  0  0  0  0
   11.4856    9.4307   22.9870 H   0  0  0  0  0  0  0  0  0  0  0  0
   10.2687    8.2192   24.7771 H   0  0  0  0  0  0  0  0  0  0  0  0
    8.3775    6.8189   24.2466 H   0  0  0  0  0  0  0  0  0  0  0  0
   10.7693    9.2096   20.6464 H   0  0  0  0  0  0  0  0  0  0  0  0
    9.2477    8.3149   18.9582 H   0  0  0  0  0  0  0  0  0  0  0  0
    7.3165    6.9372   18.3224 H   0  0  0  0  0  0  0  0  0  0  0  0
    6.0954    5.6359   20.0207 H   0  0  0  0  0  0  0  0  0  0  0  0
    8.2726    4.6482   23.7908 H   0  0  0  0  0  0  0  0  0  0  0  0
    1.7019    4.0573   23.1163 H   0  0  0  0  0  0  0  0  0  0  0  0
    2.8631    4.9233   22.1269 H   0  0  0  0  0  0  0  0  0  0  0  0
    5.3979    2.6284   25.5419 H   0  0  0  0  0  0  0  0  0  0  0  0
    7.9852    1.4928   27.4762 H   0  0  0  0  0  0  0  0  0  0  0  0
    6.2936    1.3656   27.1170 H   0  0  0  0  0  0  0  0  0  0  0  0
  1  2  2  0  0  0  0
  1  6  1  0  0  0  0
  1 23  1  0  0  0  0
  2  3  1  0  0  0  0
  2 24  1  0  0  0  0
  3  4  2  0  0  0  0
  3 25  1  0  0  0  0
  4  5  1  0  0  0  0
  4 10  1  0  0  0  0
  5  6  2  0  0  0  0
  5  7  1  0  0  0  0
  6 26  1  0  0  0  0
  7  8  2  0  0  0  0
  7 27  1  0  0  0  0
  8  9  1  0  0  0  0
  8 28  1  0  0  0  0
  9 10  2  0  0  0  0
  9 29  1  0  0  0  0
 10 11  1  0  0  0  0
 11 12  2  0  0  0  0
 11 15  1  0  0  0  0
 12 13  1  0  0  0  0
 12 30  1  0  0  0  0
 13 14  2  0  0  0  0
 13 19  1  0  0  0  0
 14 15  1  0  0  0  0
 14 16  1  0  0  0  0
 16 17  2  0  0  0  0
 16 18  1  0  0  0  0
 18 31  1  0  0  0  0
 18 32  1  0  0  0  0
 19 20  1  0  0  0  0
 19 33  1  0  0  0  0
 20 21  2  0  0  0  0
 20 22  1  0  0  0  0
 22 34  1  0  0  0  0
 22 35  1  0  0  0  0
M  CHG  1  11   1
M  END
$$$$
