M4Z
 OpenBabel04111918053D

 71 73  0  0  1  0  0  0  0  0999 V2000
   18.7790  -14.5318   24.1907 C   0  0  0  0  0  0  0  0  0  0  0  0
   18.9011  -15.8404   24.9887 C   0  0  0  0  0  0  0  0  0  0  0  0
   19.4390  -15.5744   26.3879 C   0  0  0  0  0  0  0  0  0  0  0  0
   20.8161  -14.9345   26.2994 C   0  0  0  0  0  0  0  0  0  0  0  0
   20.7178  -13.5939   25.5856 C   0  0  0  0  0  0  0  0  0  0  0  0
   20.1143  -13.7611   24.1948 C   0  0  0  0  0  0  0  0  0  0  0  0
   17.0240  -15.5782   22.7780 N   0  3  0  0  0  0  0  0  0  0  0  0
   18.3130  -14.7688   22.7314 C   0  0  1  0  0  0  0  0  0  0  0  0
   18.0208  -13.3988   22.1028 C   0  0  0  0  0  0  0  0  0  0  0  0
   16.9655  -12.8387   22.4321 O   0  0  0  0  0  0  0  0  0  0  0  0
   18.8976  -12.8449   21.2141 N   0  0  0  0  0  0  0  0  0  0  0  0
   18.6091  -11.6853   20.3522 C   0  0  2  0  0  0  0  0  0  0  0  0
   17.2175  -11.8357   19.7324 C   0  0  0  0  0  0  0  0  0  0  0  0
   16.8729  -12.9013   19.2062 O   0  0  0  0  0  0  0  0  0  0  0  0
   16.3274  -10.8009   19.8852 N   0  0  0  0  0  0  0  0  0  0  0  0
   14.9709  -10.9999   19.4418 C   0  0  0  0  0  0  0  0  0  0  0  0
   14.0237  -11.0156   20.6033 C   0  0  0  0  0  0  0  0  0  0  0  0
   13.4698   -9.8103   21.0290 C   0  0  0  0  0  0  0  0  0  0  0  0
   12.5849   -9.7924   22.0938 C   0  0  0  0  0  0  0  0  0  0  0  0
   12.2346  -10.9694   22.7712 C   0  0  0  0  0  0  0  0  0  0  0  0
   12.8084  -12.1829   22.3462 C   0  0  0  0  0  0  0  0  0  0  0  0
   13.7005  -12.2016   21.2722 C   0  0  0  0  0  0  0  0  0  0  0  0
   11.2549  -10.9045   23.8630 C   0  0  0  0  0  0  0  0  0  0  0  0
   10.5453  -11.9579   24.1920 N   0  0  0  0  0  0  0  0  0  0  0  0
   11.0297   -9.7497   24.4907 N   0  0  0  0  0  0  0  0  0  0  0  0
   19.7947  -12.1288   19.4805 C   0  0  0  0  0  0  0  0  0  0  0  0
   20.0545  -13.2818   20.4587 C   0  0  0  0  0  0  0  0  0  0  0  0
   16.3604  -15.8956   21.4625 C   0  0  0  0  0  0  0  0  0  0  0  0
   12.0231  -15.5725   19.4275 C   0  0  0  0  0  0  0  0  0  0  0  0
   14.8773  -16.2358   21.6838 C   0  0  0  0  0  0  0  0  0  0  0  0
   14.4672  -16.5483   22.8000 O   0  0  0  0  0  0  0  0  0  0  0  0
   12.6398  -16.3208   20.5907 C   0  0  0  0  0  0  0  0  0  0  0  0
   14.0753  -16.0805   20.5849 N   0  0  0  0  0  0  0  0  0  0  0  0
   18.0348  -13.9046   24.7081 H   0  0  0  0  0  0  0  0  0  0  0  0
   19.5654  -16.5352   24.4598 H   0  0  0  0  0  0  0  0  0  0  0  0
   17.9279  -16.3319   25.0881 H   0  0  0  0  0  0  0  0  0  0  0  0
   19.4885  -16.5095   26.9537 H   0  0  0  0  0  0  0  0  0  0  0  0
   18.7517  -14.9039   26.9205 H   0  0  0  0  0  0  0  0  0  0  0  0
   21.4942  -15.5955   25.7444 H   0  0  0  0  0  0  0  0  0  0  0  0
   21.2345  -14.8002   27.3008 H   0  0  0  0  0  0  0  0  0  0  0  0
   21.7121  -13.1402   25.5034 H   0  0  0  0  0  0  0  0  0  0  0  0
   20.0995  -12.9070   26.1767 H   0  0  0  0  0  0  0  0  0  0  0  0
   19.9707  -12.7660   23.7602 H   0  0  0  0  0  0  0  0  0  0  0  0
   20.8321  -14.2929   23.5590 H   0  0  0  0  0  0  0  0  0  0  0  0
   17.1399  -16.4663   23.2782 H   0  0  0  0  0  0  0  0  0  0  0  0
   19.0339  -15.3591   22.1613 H   0  0  0  0  0  0  0  0  0  0  0  0
   18.7808  -10.7488   20.8874 H   0  0  0  0  0  0  0  0  0  0  0  0
   16.5788   -9.9699   20.4001 H   0  0  0  0  0  0  0  0  0  0  0  0
   14.8646  -11.9328   18.8810 H   0  0  0  0  0  0  0  0  0  0  0  0
   14.7261  -10.1845   18.7547 H   0  0  0  0  0  0  0  0  0  0  0  0
   13.7107   -8.8858   20.5112 H   0  0  0  0  0  0  0  0  0  0  0  0
   12.1531   -8.8302   22.3590 H   0  0  0  0  0  0  0  0  0  0  0  0
   12.5789  -13.1280   22.8323 H   0  0  0  0  0  0  0  0  0  0  0  0
   14.1427  -13.1418   20.9436 H   0  0  0  0  0  0  0  0  0  0  0  0
    9.8162  -11.9265   24.8951 H   0  0  0  0  0  0  0  0  0  0  0  0
   11.5912   -8.9252   24.2812 H   0  0  0  0  0  0  0  0  0  0  0  0
   10.3323   -9.6474   25.2013 H   0  0  0  0  0  0  0  0  0  0  0  0
   20.6010  -11.3926   19.3931 H   0  0  0  0  0  0  0  0  0  0  0  0
   19.5152  -12.4344   18.4631 H   0  0  0  0  0  0  0  0  0  0  0  0
   19.9893  -14.2719   20.0010 H   0  0  0  0  0  0  0  0  0  0  0  0
   20.9746  -13.1744   21.0360 H   0  0  0  0  0  0  0  0  0  0  0  0
   16.8827  -16.7582   21.0437 H   0  0  0  0  0  0  0  0  0  0  0  0
   16.4517  -15.0263   20.8102 H   0  0  0  0  0  0  0  0  0  0  0  0
   10.9420  -15.7172   19.3860 H   0  0  0  0  0  0  0  0  0  0  0  0
   12.4605  -15.9137   18.4827 H   0  0  0  0  0  0  0  0  0  0  0  0
   12.2328  -14.5017   19.5197 H   0  0  0  0  0  0  0  0  0  0  0  0
   12.4564  -17.3988   20.4955 H   0  0  0  0  0  0  0  0  0  0  0  0
   12.2087  -15.9878   21.5404 H   0  0  0  0  0  0  0  0  0  0  0  0
   14.4918  -15.8547   19.6852 H   0  0  0  0  0  0  0  0  0  0  0  0
   16.3344  -15.0396   23.3320 H   0  0  0  0  0  0  0  0  0  0  0  0
   10.6695  -12.8475   23.7196 H   0  0  0  0  0  0  0  0  0  0  0  0
  1  2  1  0  0  0  0
  1  6  1  0  0  0  0
  1  8  1  0  0  0  0
  1 34  1  0  0  0  0
  2  3  1  0  0  0  0
  2 35  1  0  0  0  0
  2 36  1  0  0  0  0
  3  4  1  0  0  0  0
  3 37  1  0  0  0  0
  3 38  1  0  0  0  0
  4  5  1  0  0  0  0
  4 39  1  0  0  0  0
  4 40  1  0  0  0  0
  5  6  1  0  0  0  0
  5 41  1  0  0  0  0
  5 42  1  0  0  0  0
  6 43  1  0  0  0  0
  6 44  1  0  0  0  0
  7  8  1  0  0  0  0
  7 28  1  0  0  0  0
  7 45  1  0  0  0  0
  7 70  1  0  0  0  0
  8  9  1  0  0  0  0
  8 46  1  6  0  0  0
  9 10  2  0  0  0  0
  9 11  1  0  0  0  0
 11 12  1  0  0  0  0
 11 27  1  0  0  0  0
 12 13  1  0  0  0  0
 12 26  1  0  0  0  0
 12 47  1  1  0  0  0
 13 14  2  0  0  0  0
 13 15  1  0  0  0  0
 15 16  1  0  0  0  0
 15 48  1  0  0  0  0
 16 17  1  0  0  0  0
 16 49  1  0  0  0  0
 16 50  1  0  0  0  0
 17 18  2  0  0  0  0
 17 22  1  0  0  0  0
 18 19  1  0  0  0  0
 18 51  1  0  0  0  0
 19 20  2  0  0  0  0
 19 52  1  0  0  0  0
 20 21  1  0  0  0  0
 20 23  1  0  0  0  0
 21 22  2  0  0  0  0
 21 53  1  0  0  0  0
 22 54  1  0  0  0  0
 23 24  2  0  0  0  0
 23 25  1  0  0  0  0
 24 55  1  0  0  0  0
 24 71  1  0  0  0  0
 25 56  1  0  0  0  0
 25 57  1  0  0  0  0
 26 27  1  0  0  0  0
 26 58  1  0  0  0  0
 26 59  1  0  0  0  0
 27 60  1  0  0  0  0
 27 61  1  0  0  0  0
 28 30  1  0  0  0  0
 28 62  1  0  0  0  0
 28 63  1  0  0  0  0
 29 32  1  0  0  0  0
 29 64  1  0  0  0  0
 29 65  1  0  0  0  0
 29 66  1  0  0  0  0
 30 31  2  0  0  0  0
 30 33  1  0  0  0  0
 32 33  1  0  0  0  0
 32 67  1  0  0  0  0
 32 68  1  0  0  0  0
 33 69  1  0  0  0  0
M  CHG  1   7   1
M  END
$$$$
