M67
 OpenBabel04111918053D

 74 76  0  0  1  0  0  0  0  0999 V2000
   12.1953  -14.9342   19.4313 C   0  0  0  0  0  0  0  0  0  0  0  0
   12.0953  -15.8451   20.6458 C   0  0  0  0  0  0  0  0  0  0  0  0
   13.0720  -17.0148   20.5534 C   0  0  0  0  0  0  0  0  0  0  0  0
   14.4552  -16.5754   20.5996 N   0  0  0  0  0  0  0  0  0  0  0  0
   15.0779  -16.2338   21.7749 C   0  0  0  0  0  0  0  0  0  0  0  0
   14.5546  -16.2706   22.8860 O   0  0  0  0  0  0  0  0  0  0  0  0
   16.5133  -15.7471   21.6118 C   0  0  0  0  0  0  0  0  0  0  0  0
   17.1228  -15.4268   22.9527 N   0  3  0  0  0  0  0  0  0  0  0  0
   18.3943  -14.5919   22.8956 C   0  0  2  0  0  0  0  0  0  0  0  0
   18.8937  -14.3440   24.3369 C   0  0  0  0  0  0  0  0  0  0  0  0
   19.1224  -15.6548   25.1083 C   0  0  0  0  0  0  0  0  0  0  0  0
   19.6607  -15.3889   26.5090 C   0  0  0  0  0  0  0  0  0  0  0  0
   20.9647  -14.6055   26.4493 C   0  0  0  0  0  0  0  0  0  0  0  0
   20.7764  -13.2927   25.7029 C   0  0  0  0  0  0  0  0  0  0  0  0
   20.1986  -13.5241   24.3120 C   0  0  0  0  0  0  0  0  0  0  0  0
   18.0551  -13.2414   22.2462 C   0  0  0  0  0  0  0  0  0  0  0  0
   16.9608  -12.7307   22.5150 O   0  0  0  0  0  0  0  0  0  0  0  0
   18.9343  -12.6718   21.3739 N   0  0  0  0  0  0  0  0  0  0  0  0
   20.1377  -13.0814   20.6785 C   0  0  0  0  0  0  0  0  0  0  0  0
   19.8114  -12.0366   19.6049 C   0  0  0  0  0  0  0  0  0  0  0  0
   18.6128  -11.5738   20.4461 C   0  0  1  0  0  0  0  0  0  0  0  0
   17.2231  -11.7742   19.8014 C   0  0  0  0  0  0  0  0  0  0  0  0
   16.9015  -12.8669   19.2954 O   0  0  0  0  0  0  0  0  0  0  0  0
   16.3215  -10.7554   19.9208 N   0  0  0  0  0  0  0  0  0  0  0  0
   14.9759  -10.9647   19.4604 C   0  0  0  0  0  0  0  0  0  0  0  0
   14.0061  -10.9167   20.6015 C   0  0  0  0  0  0  0  0  0  0  0  0
   13.7115  -12.0628   21.3528 C   0  0  0  0  0  0  0  0  0  0  0  0
   12.8011  -11.9982   22.4079 C   0  0  0  0  0  0  0  0  0  0  0  0
   12.1615  -10.7889   22.7376 C   0  0  0  0  0  0  0  0  0  0  0  0
   12.4830   -9.6454   21.9854 C   0  0  0  0  0  0  0  0  0  0  0  0
   13.4024   -9.7072   20.9406 C   0  0  0  0  0  0  0  0  0  0  0  0
   11.1665  -10.7165   23.8258 C   0  0  0  0  0  0  0  0  0  0  0  0
   10.4874  -11.7929   24.1607 N   0  0  0  0  0  0  0  0  0  0  0  0
   10.9432   -9.5821   24.4555 N   0  0  0  0  0  0  0  0  0  0  0  0
   11.4870  -14.1049   19.5157 H   0  0  0  0  0  0  0  0  0  0  0  0
   11.9701  -15.4870   18.5139 H   0  0  0  0  0  0  0  0  0  0  0  0
   13.2004  -14.5123   19.3350 H   0  0  0  0  0  0  0  0  0  0  0  0
   11.0731  -16.2339   20.7180 H   0  0  0  0  0  0  0  0  0  0  0  0
   12.2834  -15.2610   21.5540 H   0  0  0  0  0  0  0  0  0  0  0  0
   12.9354  -17.5589   19.6128 H   0  0  0  0  0  0  0  0  0  0  0  0
   12.9017  -17.7093   21.3822 H   0  0  0  0  0  0  0  0  0  0  0  0
   14.9218  -16.4386   19.7077 H   0  0  0  0  0  0  0  0  0  0  0  0
   16.5015  -14.8407   21.0058 H   0  0  0  0  0  0  0  0  0  0  0  0
   17.1335  -16.5229   21.1571 H   0  0  0  0  0  0  0  0  0  0  0  0
   16.4053  -14.8969   23.4786 H   0  0  0  0  0  0  0  0  0  0  0  0
   19.1129  -15.1669   22.3059 H   0  0  0  0  0  0  0  0  0  0  0  0
   18.1379  -13.7565   24.8815 H   0  0  0  0  0  0  0  0  0  0  0  0
   19.8293  -16.2845   24.5534 H   0  0  0  0  0  0  0  0  0  0  0  0
   18.1936  -16.2236   25.2103 H   0  0  0  0  0  0  0  0  0  0  0  0
   19.8177  -16.3395   27.0289 H   0  0  0  0  0  0  0  0  0  0  0  0
   18.9147  -14.8249   27.0838 H   0  0  0  0  0  0  0  0  0  0  0  0
   21.7297  -15.2074   25.9450 H   0  0  0  0  0  0  0  0  0  0  0  0
   21.3242  -14.4067   27.4636 H   0  0  0  0  0  0  0  0  0  0  0  0
   21.7377  -12.7749   25.6158 H   0  0  0  0  0  0  0  0  0  0  0  0
   20.1079  -12.6349   26.2723 H   0  0  0  0  0  0  0  0  0  0  0  0
   20.0315  -12.5468   23.8473 H   0  0  0  0  0  0  0  0  0  0  0  0
   20.9394  -14.0513   23.6979 H   0  0  0  0  0  0  0  0  0  0  0  0
   20.1489  -14.1098   20.3096 H   0  0  0  0  0  0  0  0  0  0  0  0
   21.0383  -12.8642   21.2560 H   0  0  0  0  0  0  0  0  0  0  0  0
   19.5344  -12.4565   18.6286 H   0  0  0  0  0  0  0  0  0  0  0  0
   20.5774  -11.2740   19.4355 H   0  0  0  0  0  0  0  0  0  0  0  0
   18.7585  -10.6074   20.9374 H   0  0  0  0  0  0  0  0  0  0  0  0
   16.5348   -9.9308   20.4730 H   0  0  0  0  0  0  0  0  0  0  0  0
   14.8718  -11.9316   18.9521 H   0  0  0  0  0  0  0  0  0  0  0  0
   14.7500  -10.1939   18.7201 H   0  0  0  0  0  0  0  0  0  0  0  0
   14.1938  -13.0068   21.1080 H   0  0  0  0  0  0  0  0  0  0  0  0
   12.6139  -12.9168   22.9621 H   0  0  0  0  0  0  0  0  0  0  0  0
   12.0094   -8.6843   22.1709 H   0  0  0  0  0  0  0  0  0  0  0  0
   13.6367   -8.8063   20.3719 H   0  0  0  0  0  0  0  0  0  0  0  0
    9.7897  -11.7821   24.8910 H   0  0  0  0  0  0  0  0  0  0  0  0
   11.4792   -8.7459   24.2454 H   0  0  0  0  0  0  0  0  0  0  0  0
   10.2444   -9.4960   25.1807 H   0  0  0  0  0  0  0  0  0  0  0  0
   17.2341  -16.3093   23.4653 H   0  0  0  0  0  0  0  0  0  0  0  0
   10.6166  -12.6696   23.6699 H   0  0  0  0  0  0  0  0  0  0  0  0
  1  2  1  0  0  0  0
  1 35  1  0  0  0  0
  1 36  1  0  0  0  0
  1 37  1  0  0  0  0
  2  3  1  0  0  0  0
  2 38  1  0  0  0  0
  2 39  1  0  0  0  0
  3  4  1  0  0  0  0
  3 40  1  0  0  0  0
  3 41  1  0  0  0  0
  4  5  1  0  0  0  0
  4 42  1  0  0  0  0
  5  6  2  0  0  0  0
  5  7  1  0  0  0  0
  7  8  1  0  0  0  0
  7 43  1  0  0  0  0
  7 44  1  0  0  0  0
  8  9  1  0  0  0  0
  8 45  1  0  0  0  0
  8 73  1  0  0  0  0
  9 10  1  0  0  0  0
  9 16  1  0  0  0  0
  9 46  1  6  0  0  0
 10 11  1  0  0  0  0
 10 15  1  0  0  0  0
 10 47  1  0  0  0  0
 11 12  1  0  0  0  0
 11 48  1  0  0  0  0
 11 49  1  0  0  0  0
 12 13  1  0  0  0  0
 12 50  1  0  0  0  0
 12 51  1  0  0  0  0
 13 14  1  0  0  0  0
 13 52  1  0  0  0  0
 13 53  1  0  0  0  0
 14 15  1  0  0  0  0
 14 54  1  0  0  0  0
 14 55  1  0  0  0  0
 15 56  1  0  0  0  0
 15 57  1  0  0  0  0
 16 17  2  0  0  0  0
 16 18  1  0  0  0  0
 18 19  1  0  0  0  0
 18 21  1  0  0  0  0
 19 20  1  0  0  0  0
 19 58  1  0  0  0  0
 19 59  1  0  0  0  0
 20 21  1  0  0  0  0
 20 60  1  0  0  0  0
 20 61  1  0  0  0  0
 21 22  1  0  0  0  0
 21 62  1  1  0  0  0
 22 23  2  0  0  0  0
 22 24  1  0  0  0  0
 24 25  1  0  0  0  0
 24 63  1  0  0  0  0
 25 26  1  0  0  0  0
 25 64  1  0  0  0  0
 25 65  1  0  0  0  0
 26 27  2  0  0  0  0
 26 31  1  0  0  0  0
 27 28  1  0  0  0  0
 27 66  1  0  0  0  0
 28 29  2  0  0  0  0
 28 67  1  0  0  0  0
 29 30  1  0  0  0  0
 29 32  1  0  0  0  0
 30 31  2  0  0  0  0
 30 68  1  0  0  0  0
 31 69  1  0  0  0  0
 32 33  2  0  0  0  0
 32 34  1  0  0  0  0
 33 70  1  0  0  0  0
 33 74  1  0  0  0  0
 34 71  1  0  0  0  0
 34 72  1  0  0  0  0
M  CHG  1   8   1
M  END
$$$$
