M6S
 OpenBabel04111918053D

 68 70  0  0  1  0  0  0  0  0999 V2000
   18.7601  -14.5328   24.3032 C   0  0  0  0  0  0  0  0  0  0  0  0
   18.9916  -15.8849   25.0014 C   0  0  0  0  0  0  0  0  0  0  0  0
   19.5476  -15.7006   26.4102 C   0  0  0  0  0  0  0  0  0  0  0  0
   20.8375  -14.8915   26.3988 C   0  0  0  0  0  0  0  0  0  0  0  0
   20.6277  -13.5422   25.7255 C   0  0  0  0  0  0  0  0  0  0  0  0
   20.0721  -13.7230   24.3166 C   0  0  0  0  0  0  0  0  0  0  0  0
   16.9368  -15.4992   22.8950 N   0  3  0  0  0  0  0  0  0  0  0  0
   18.2366  -14.6992   22.8536 C   0  0  1  0  0  0  0  0  0  0  0  0
   17.9278  -13.3147   22.2562 C   0  0  0  0  0  0  0  0  0  0  0  0
   16.8454  -12.7933   22.5567 O   0  0  0  0  0  0  0  0  0  0  0  0
   18.8217  -12.7299   21.4039 N   0  0  0  0  0  0  0  0  0  0  0  0
   18.5356  -11.5754   20.5441 C   0  0  2  0  0  0  0  0  0  0  0  0
   17.1814  -11.7123   19.8807 C   0  0  0  0  0  0  0  0  0  0  0  0
   16.8887  -12.7657   19.2774 O   0  0  0  0  0  0  0  0  0  0  0  0
   16.2563  -10.7276   20.0509 N   0  0  0  0  0  0  0  0  0  0  0  0
   14.9301  -10.9495   19.5553 C   0  0  0  0  0  0  0  0  0  0  0  0
   13.9504  -10.9275   20.6858 C   0  0  0  0  0  0  0  0  0  0  0  0
   13.4379   -9.7066   21.1081 C   0  0  0  0  0  0  0  0  0  0  0  0
   12.5292   -9.6575   22.1545 C   0  0  0  0  0  0  0  0  0  0  0  0
   12.1374  -10.8259   22.8274 C   0  0  0  0  0  0  0  0  0  0  0  0
   12.6925  -12.0513   22.4141 C   0  0  0  0  0  0  0  0  0  0  0  0
   13.5888  -12.1011   21.3489 C   0  0  0  0  0  0  0  0  0  0  0  0
   11.1293  -10.7663   23.8995 C   0  0  0  0  0  0  0  0  0  0  0  0
   10.4249  -11.8257   24.2064 N   0  0  0  0  0  0  0  0  0  0  0  0
   10.8965   -9.6262   24.5454 N   0  0  0  0  0  0  0  0  0  0  0  0
   19.7526  -11.9953   19.6961 C   0  0  0  0  0  0  0  0  0  0  0  0
   20.0079  -13.1409   20.6817 C   0  0  0  0  0  0  0  0  0  0  0  0
   16.3197  -15.8452   21.5566 C   0  0  0  0  0  0  0  0  0  0  0  0
   14.7940  -15.9716   21.6907 C   0  0  0  0  0  0  0  0  0  0  0  0
   14.2947  -16.2831   22.7721 O   0  0  0  0  0  0  0  0  0  0  0  0
   12.6083  -15.7002   20.5742 C   0  0  0  0  0  0  0  0  0  0  0  0
   14.0578  -15.6429   20.5785 N   0  0  0  0  0  0  0  0  0  0  0  0
   18.0166  -13.9725   24.8920 H   0  0  0  0  0  0  0  0  0  0  0  0
   19.6859  -16.4918   24.4070 H   0  0  0  0  0  0  0  0  0  0  0  0
   18.0594  -16.4515   25.0827 H   0  0  0  0  0  0  0  0  0  0  0  0
   19.7265  -16.6800   26.8664 H   0  0  0  0  0  0  0  0  0  0  0  0
   18.7996  -15.1880   27.0273 H   0  0  0  0  0  0  0  0  0  0  0  0
   21.6129  -15.4486   25.8593 H   0  0  0  0  0  0  0  0  0  0  0  0
   21.1951  -14.7463   27.4230 H   0  0  0  0  0  0  0  0  0  0  0  0
   21.5765  -12.9957   25.6815 H   0  0  0  0  0  0  0  0  0  0  0  0
   19.9359  -12.9332   26.3203 H   0  0  0  0  0  0  0  0  0  0  0  0
   19.9164  -12.7328   23.8781 H   0  0  0  0  0  0  0  0  0  0  0  0
   20.8198  -14.2384   23.7011 H   0  0  0  0  0  0  0  0  0  0  0  0
   17.0205  -16.3694   23.4306 H   0  0  0  0  0  0  0  0  0  0  0  0
   18.9316  -15.2710   22.2350 H   0  0  0  0  0  0  0  0  0  0  0  0
   18.6936  -10.6333   21.0915 H   0  0  0  0  0  0  0  0  0  0  0  0
   16.4551   -9.9303   20.6612 H   0  0  0  0  0  0  0  0  0  0  0  0
   14.8475  -11.8986   19.0241 H   0  0  0  0  0  0  0  0  0  0  0  0
   14.7160  -10.1556   18.8257 H   0  0  0  0  0  0  0  0  0  0  0  0
   13.7429   -8.7906   20.6043 H   0  0  0  0  0  0  0  0  0  0  0  0
   12.1128   -8.6864   22.4023 H   0  0  0  0  0  0  0  0  0  0  0  0
   12.4435  -12.9896   22.9008 H   0  0  0  0  0  0  0  0  0  0  0  0
   14.0139  -13.0473   21.0339 H   0  0  0  0  0  0  0  0  0  0  0  0
    9.6898  -11.8058   24.8999 H   0  0  0  0  0  0  0  0  0  0  0  0
   11.4362   -8.7840   24.3658 H   0  0  0  0  0  0  0  0  0  0  0  0
   10.1737   -9.5447   25.2536 H   0  0  0  0  0  0  0  0  0  0  0  0
   20.5446  -11.2462   19.6185 H   0  0  0  0  0  0  0  0  0  0  0  0
   19.4964  -12.3101   18.6743 H   0  0  0  0  0  0  0  0  0  0  0  0
   19.9791  -14.1336   20.2244 H   0  0  0  0  0  0  0  0  0  0  0  0
   20.9087  -13.0108   21.2839 H   0  0  0  0  0  0  0  0  0  0  0  0
   16.7476  -16.8052   21.2587 H   0  0  0  0  0  0  0  0  0  0  0  0
   16.5803  -15.0646   20.8402 H   0  0  0  0  0  0  0  0  0  0  0  0
   12.2412  -15.3973   19.5893 H   0  0  0  0  0  0  0  0  0  0  0  0
   12.2117  -15.0222   21.3348 H   0  0  0  0  0  0  0  0  0  0  0  0
   12.2780  -16.7180   20.8014 H   0  0  0  0  0  0  0  0  0  0  0  0
   14.5153  -15.3596   19.7160 H   0  0  0  0  0  0  0  0  0  0  0  0
   16.2355  -14.9333   23.4060 H   0  0  0  0  0  0  0  0  0  0  0  0
   10.5669  -12.6979   23.7199 H   0  0  0  0  0  0  0  0  0  0  0  0
  1  2  1  0  0  0  0
  1  6  1  0  0  0  0
  1  8  1  0  0  0  0
  1 33  1  0  0  0  0
  2  3  1  0  0  0  0
  2 34  1  0  0  0  0
  2 35  1  0  0  0  0
  3  4  1  0  0  0  0
  3 36  1  0  0  0  0
  3 37  1  0  0  0  0
  4  5  1  0  0  0  0
  4 38  1  0  0  0  0
  4 39  1  0  0  0  0
  5  6  1  0  0  0  0
  5 40  1  0  0  0  0
  5 41  1  0  0  0  0
  6 42  1  0  0  0  0
  6 43  1  0  0  0  0
  7  8  1  0  0  0  0
  7 28  1  0  0  0  0
  7 44  1  0  0  0  0
  7 67  1  0  0  0  0
  8  9  1  0  0  0  0
  8 45  1  6  0  0  0
  9 10  2  0  0  0  0
  9 11  1  0  0  0  0
 11 12  1  0  0  0  0
 11 27  1  0  0  0  0
 12 13  1  0  0  0  0
 12 26  1  0  0  0  0
 12 46  1  1  0  0  0
 13 14  2  0  0  0  0
 13 15  1  0  0  0  0
 15 16  1  0  0  0  0
 15 47  1  0  0  0  0
 16 17  1  0  0  0  0
 16 48  1  0  0  0  0
 16 49  1  0  0  0  0
 17 18  2  0  0  0  0
 17 22  1  0  0  0  0
 18 19  1  0  0  0  0
 18 50  1  0  0  0  0
 19 20  2  0  0  0  0
 19 51  1  0  0  0  0
 20 21  1  0  0  0  0
 20 23  1  0  0  0  0
 21 22  2  0  0  0  0
 21 52  1  0  0  0  0
 22 53  1  0  0  0  0
 23 24  2  0  0  0  0
 23 25  1  0  0  0  0
 24 54  1  0  0  0  0
 24 68  1  0  0  0  0
 25 55  1  0  0  0  0
 25 56  1  0  0  0  0
 26 27  1  0  0  0  0
 26 57  1  0  0  0  0
 26 58  1  0  0  0  0
 27 59  1  0  0  0  0
 27 60  1  0  0  0  0
 28 29  1  0  0  0  0
 28 61  1  0  0  0  0
 28 62  1  0  0  0  0
 29 30  2  0  0  0  0
 29 32  1  0  0  0  0
 31 32  1  0  0  0  0
 31 63  1  0  0  0  0
 31 64  1  0  0  0  0
 31 65  1  0  0  0  0
 32 66  1  0  0  0  0
M  CHG  1   7   1
M  END
$$$$
