M7G
 OpenBabel04111918453D

 44 46  0  0  1  0  0  0  0  0999 V2000
   -6.0825  -21.3394  -21.7167 P   0  0  2  0  0  0  0  0  0  0  0  0
   -7.4216  -22.0544  -21.8241 O   0  0  0  0  0  0  0  0  0  0  0  0
   -5.8519  -19.9738  -22.3200 O   0  0  0  0  0  0  0  0  0  0  0  0
   -4.8267  -22.3072  -21.7397 O   0  0  0  0  0  0  0  0  0  0  0  0
   -6.0294  -21.0500  -20.0964 O   0  0  0  0  0  0  0  0  0  0  0  0
   -4.1243  -23.2995  -22.7851 P   0  0  0  0  0  0  0  0  0  0  0  0
   -4.4157  -22.7704  -24.1743 O   0  0  0  0  0  0  0  0  0  0  0  0
   -2.6588  -23.2191  -22.3622 O   0  0  0  0  0  0  0  0  0  0  0  0
   -4.7329  -24.6616  -22.4580 O   0  0  0  0  0  0  0  0  0  0  0  0
   -4.8462  -20.5130  -19.5359 C   0  0  0  0  0  0  0  0  0  0  0  0
   -4.4848  -21.2792  -18.2509 C   0  0  1  0  0  0  0  0  0  0  0  0
   -5.6792  -21.6365  -17.4906 O   0  0  0  0  0  0  0  0  0  0  0  0
   -3.7773  -22.6096  -18.4914 C   0  0  1  0  0  0  0  0  0  0  0  0
   -3.1109  -22.9959  -17.2615 O   0  0  0  0  0  0  0  0  0  0  0  0
   -4.9304  -23.5448  -18.7909 C   0  0  1  0  0  0  0  0  0  0  0  0
   -4.6307  -24.9041  -18.4601 O   0  0  0  0  0  0  0  0  0  0  0  0
   -6.0194  -22.9884  -17.8865 C   0  0  2  0  0  0  0  0  0  0  0  0
   -7.3813  -23.0106  -18.3612 N   0  3  0  0  0  0  0  0  0  0  0  0
   -7.7734  -23.4717  -19.5644 C   0  0  0  0  0  0  0  0  0  0  0  0
   -9.1114  -23.3698  -19.6294 N   0  3  0  0  0  0  0  0  0  0  0  0
   -9.8315  -23.7355  -20.8307 C   0  0  0  0  0  0  0  0  0  0  0  0
   -9.5588  -22.6473  -18.5325 C   0  0  0  0  0  0  0  0  0  0  0  0
  -10.8406  -22.1612  -18.0861 C   0  0  0  0  0  0  0  0  0  0  0  0
  -11.9481  -22.2670  -18.6166 O   0  0  0  0  0  0  0  0  0  0  0  0
  -10.7423  -21.5283  -16.8257 N   0  3  0  0  0  0  0  0  0  0  0  0
   -9.6152  -21.3455  -16.0364 C   0  0  0  0  0  0  0  0  0  0  0  0
   -9.7805  -20.7576  -14.9193 N   0  0  0  0  0  0  0  0  0  0  0  0
   -8.4324  -21.8387  -16.5073 N   0  3  0  0  0  0  0  0  0  0  0  0
   -8.4571  -22.4485  -17.7349 C   0  0  0  0  0  0  0  0  0  0  0  0
   -5.0565  -19.4696  -19.2786 H   0  0  0  0  0  0  0  0  0  0  0  0
   -4.0019  -20.5174  -20.2336 H   0  0  0  0  0  0  0  0  0  0  0  0
   -3.8767  -20.6383  -17.6024 H   0  0  0  0  0  0  0  0  0  0  0  0
   -3.0217  -22.5771  -19.2780 H   0  0  0  0  0  0  0  0  0  0  0  0
   -3.7738  -23.3757  -16.6632 H   0  0  0  0  0  0  0  0  0  0  0  0
   -5.2137  -23.5042  -19.8353 H   0  0  0  0  0  0  0  0  0  0  0  0
   -3.9443  -25.1472  -19.1220 H   0  0  0  0  0  0  0  0  0  0  0  0
   -6.0423  -23.5691  -16.9528 H   0  0  0  0  0  0  0  0  0  0  0  0
   -7.1458  -23.9139  -20.3485 H   0  0  0  0  0  0  0  0  0  0  0  0
   -9.1507  -24.2212  -21.5373 H   0  0  0  0  0  0  0  0  0  0  0  0
  -10.2772  -22.8563  -21.2975 H   0  0  0  0  0  0  0  0  0  0  0  0
  -10.6069  -24.4565  -20.5574 H   0  0  0  0  0  0  0  0  0  0  0  0
  -11.6003  -21.1535  -16.4454 H   0  0  0  0  0  0  0  0  0  0  0  0
   -8.8826  -20.6835  -14.4300 H   0  0  0  0  0  0  0  0  0  0  0  0
   -7.5743  -21.6353  -16.0158 H   0  0  0  0  0  0  0  0  0  0  0  0
  1  2  2  6  0  0  0
  1  3  1  0  0  0  0
  1  4  1  0  0  0  0
  1  5  1  0  0  0  0
  4  6  1  0  0  0  0
  5 10  1  0  0  0  0
  6  7  2  0  0  0  0
  6  8  1  0  0  0  0
  6  9  1  0  0  0  0
 10 11  1  0  0  0  0
 10 30  1  0  0  0  0
 10 31  1  0  0  0  0
 11 12  1  0  0  0  0
 11 13  1  0  0  0  0
 11 32  1  1  0  0  0
 12 17  1  0  0  0  0
 13 14  1  0  0  0  0
 13 15  1  0  0  0  0
 13 33  1  6  0  0  0
 14 34  1  0  0  0  0
 15 16  1  0  0  0  0
 15 17  1  0  0  0  0
 15 35  1  6  0  0  0
 16 36  1  0  0  0  0
 17 18  1  0  0  0  0
 17 37  1  1  0  0  0
 18 19  2  0  0  0  0
 18 29  1  0  0  0  0
 19 20  1  0  0  0  0
 19 38  1  0  0  0  0
 20 21  1  0  0  0  0
 20 22  2  0  0  0  0
 21 39  1  0  0  0  0
 21 40  1  0  0  0  0
 21 41  1  0  0  0  0
 22 23  1  0  0  0  0
 22 29  1  0  0  0  0
 23 24  2  0  0  0  0
 23 25  1  0  0  0  0
 25 26  1  0  0  0  0
 25 42  1  0  0  0  0
 26 27  2  0  0  0  0
 26 28  1  0  0  0  0
 27 43  1  0  0  0  0
 28 29  2  0  0  0  0
 28 44  1  0  0  0  0
M  CHG  4  18   1  20   1  25   1  28   1
M  END
$$$$
