M86
 OpenBabel04111918333D

 80 82  0  0  1  0  0  0  0  0999 V2000
   -8.2297   -2.2882  -14.0623 O   0  0  0  0  0  0  0  0  0  0  0  0
   -7.3804   -3.3826  -14.4950 S   0  0  0  0  0  0  0  0  0  0  0  0
   -6.8168   -4.3172  -13.5501 O   0  0  0  0  0  0  0  0  0  0  0  0
   -8.2985   -4.3199  -15.6906 C   0  0  0  0  0  0  0  0  0  0  0  0
   -9.2763   -3.7179  -16.4823 C   0  0  0  0  0  0  0  0  0  0  0  0
   -9.9902   -4.5073  -17.3897 C   0  0  0  0  0  0  0  0  0  0  0  0
   -8.0489   -5.6905  -15.7787 C   0  0  0  0  0  0  0  0  0  0  0  0
   -8.7526   -6.4636  -16.6922 C   0  0  0  0  0  0  0  0  0  0  0  0
   -9.7249   -5.8785  -17.5047 C   0  0  0  0  0  0  0  0  0  0  0  0
  -10.4811   -6.5585  -18.4210 O   0  0  0  0  0  0  0  0  0  0  0  0
  -10.1014   -7.9130  -18.6560 C   0  0  0  0  0  0  0  0  0  0  0  0
   -6.1009   -2.7493  -15.4300 N   0  0  0  0  0  0  0  0  0  0  0  0
   -5.3013   -3.7572  -16.1701 C   0  0  0  0  0  0  0  0  0  0  0  0
   -3.8030   -3.4435  -16.1971 C   0  0  1  0  0  0  0  0  0  0  0  0
   -3.1938   -3.4500  -14.7923 C   0  0  0  0  0  0  0  0  0  0  0  0
   -3.0773   -4.4339  -17.1303 C   0  0  0  0  0  0  0  0  0  0  0  0
   -3.2309   -5.8995  -16.7416 C   0  0  0  0  0  0  0  0  0  0  0  0
   -6.3540   -1.4880  -16.1597 C   0  0  0  0  0  0  0  0  0  0  0  0
   -5.4562   -0.3637  -15.6081 C   0  0  1  0  0  0  0  0  0  0  0  0
   -5.5432    0.7777  -16.4768 O   0  0  0  0  0  0  0  0  0  0  0  0
   -5.7756    0.0527  -14.1527 C   0  0  2  0  0  0  0  0  0  0  0  0
   -7.1191    0.8048  -14.0284 C   0  0  0  0  0  0  0  0  0  0  0  0
   -7.4356    1.1344  -12.5873 C   0  0  0  0  0  0  0  0  0  0  0  0
   -7.9172    0.1433  -11.7230 C   0  0  0  0  0  0  0  0  0  0  0  0
   -8.1444    0.4261  -10.3781 C   0  0  0  0  0  0  0  0  0  0  0  0
   -7.8859    1.7017   -9.8834 C   0  0  0  0  0  0  0  0  0  0  0  0
   -7.3984    2.6933  -10.7329 C   0  0  0  0  0  0  0  0  0  0  0  0
   -7.1751    2.4128  -12.0800 C   0  0  0  0  0  0  0  0  0  0  0  0
   -4.6862    0.9084  -13.6608 N   0  0  0  0  0  0  0  0  0  0  0  0
   -3.8086    0.5649  -12.6798 C   0  0  0  0  0  0  0  0  0  0  0  0
   -3.7076   -0.5362  -12.1626 O   0  0  0  0  0  0  0  0  0  0  0  0
   -3.0452    1.6426  -12.3832 O   0  0  0  0  0  0  0  0  0  0  0  0
   -2.1141    1.4938  -11.2979 C   0  0  0  0  0  0  0  0  0  0  0  0
   -1.7819    2.8766  -10.7265 C   0  0  0  0  0  0  0  0  0  0  0  0
   -2.8816    3.4811   -9.9912 N   0  0  0  0  0  0  0  0  0  0  0  0
   -2.8568    3.6139   -8.5518 C   0  0  0  0  0  0  0  0  0  0  0  0
   -3.7136    4.4605  -10.5368 C   0  0  0  0  0  0  0  0  0  0  0  0
   -3.7657    4.8401  -11.6930 O   0  0  0  0  0  0  0  0  0  0  0  0
   -4.4515    5.0047   -9.4968 N   0  0  0  0  0  0  0  0  0  0  0  0
   -4.1306    4.3863   -8.2416 C   0  0  0  0  0  0  0  0  0  0  0  0
   -9.4974   -2.6569  -16.3915 H   0  0  0  0  0  0  0  0  0  0  0  0
  -10.7664   -4.0526  -18.0016 H   0  0  0  0  0  0  0  0  0  0  0  0
   -7.3077   -6.1649  -15.1394 H   0  0  0  0  0  0  0  0  0  0  0  0
   -8.5263   -7.5229  -16.7277 H   0  0  0  0  0  0  0  0  0  0  0  0
  -10.7692   -8.3306  -19.4137 H   0  0  0  0  0  0  0  0  0  0  0  0
  -10.2100   -8.5219  -17.7513 H   0  0  0  0  0  0  0  0  0  0  0  0
   -9.0776   -7.9661  -19.0438 H   0  0  0  0  0  0  0  0  0  0  0  0
   -5.6863   -3.8320  -17.1951 H   0  0  0  0  0  0  0  0  0  0  0  0
   -5.4349   -4.7360  -15.7047 H   0  0  0  0  0  0  0  0  0  0  0  0
   -3.6488   -2.4466  -16.6233 H   0  0  0  0  0  0  0  0  0  0  0  0
   -2.1198   -3.2413  -14.8404 H   0  0  0  0  0  0  0  0  0  0  0  0
   -3.3301   -4.4137  -14.2916 H   0  0  0  0  0  0  0  0  0  0  0  0
   -3.6512   -2.6839  -14.1593 H   0  0  0  0  0  0  0  0  0  0  0  0
   -2.0105   -4.1839  -17.1655 H   0  0  0  0  0  0  0  0  0  0  0  0
   -3.4622   -4.3026  -18.1497 H   0  0  0  0  0  0  0  0  0  0  0  0
   -2.6965   -6.5353  -17.4524 H   0  0  0  0  0  0  0  0  0  0  0  0
   -4.2788   -6.2141  -16.7532 H   0  0  0  0  0  0  0  0  0  0  0  0
   -2.8247   -6.0920  -15.7449 H   0  0  0  0  0  0  0  0  0  0  0  0
   -7.4052   -1.1892  -16.1248 H   0  0  0  0  0  0  0  0  0  0  0  0
   -6.1533   -1.6228  -17.2302 H   0  0  0  0  0  0  0  0  0  0  0  0
   -4.4117   -0.6911  -15.6333 H   0  0  0  0  0  0  0  0  0  0  0  0
   -5.1883    0.5137  -17.3431 H   0  0  0  0  0  0  0  0  0  0  0  0
   -5.8001   -0.8451  -13.5229 H   0  0  0  0  0  0  0  0  0  0  0  0
   -7.9494    0.2213  -14.4407 H   0  0  0  0  0  0  0  0  0  0  0  0
   -7.0954    1.7326  -14.6146 H   0  0  0  0  0  0  0  0  0  0  0  0
   -8.1005   -0.8640  -12.0864 H   0  0  0  0  0  0  0  0  0  0  0  0
   -8.5129   -0.3560   -9.7205 H   0  0  0  0  0  0  0  0  0  0  0  0
   -8.0586    1.9198   -8.8344 H   0  0  0  0  0  0  0  0  0  0  0  0
   -7.1789    3.6843  -10.3483 H   0  0  0  0  0  0  0  0  0  0  0  0
   -6.7704    3.1895  -12.7254 H   0  0  0  0  0  0  0  0  0  0  0  0
   -4.6327    1.8607  -13.9950 H   0  0  0  0  0  0  0  0  0  0  0  0
   -1.1948    1.0542  -11.7039 H   0  0  0  0  0  0  0  0  0  0  0  0
   -2.5036    0.8384  -10.5100 H   0  0  0  0  0  0  0  0  0  0  0  0
   -1.5077    3.5570  -11.5396 H   0  0  0  0  0  0  0  0  0  0  0  0
   -0.9299    2.8032  -10.0416 H   0  0  0  0  0  0  0  0  0  0  0  0
   -1.9774    4.2198   -8.3047 H   0  0  0  0  0  0  0  0  0  0  0  0
   -2.7948    2.6461   -8.0485 H   0  0  0  0  0  0  0  0  0  0  0  0
   -5.1278    5.7370   -9.6641 H   0  0  0  0  0  0  0  0  0  0  0  0
   -3.9848    5.1479   -7.4714 H   0  0  0  0  0  0  0  0  0  0  0  0
   -4.9550    3.7244   -7.9595 H   0  0  0  0  0  0  0  0  0  0  0  0
  1  2  2  0  0  0  0
  2  3  2  0  0  0  0
  2  4  1  0  0  0  0
  2 12  1  0  0  0  0
  4  5  2  0  0  0  0
  4  7  1  0  0  0  0
  5  6  1  0  0  0  0
  5 41  1  0  0  0  0
  6  9  2  0  0  0  0
  6 42  1  0  0  0  0
  7  8  2  0  0  0  0
  7 43  1  0  0  0  0
  8  9  1  0  0  0  0
  8 44  1  0  0  0  0
  9 10  1  0  0  0  0
 10 11  1  0  0  0  0
 11 45  1  0  0  0  0
 11 46  1  0  0  0  0
 11 47  1  0  0  0  0
 12 13  1  0  0  0  0
 12 18  1  0  0  0  0
 13 14  1  0  0  0  0
 13 48  1  0  0  0  0
 13 49  1  0  0  0  0
 14 15  1  0  0  0  0
 14 16  1  0  0  0  0
 14 50  1  6  0  0  0
 15 51  1  0  0  0  0
 15 52  1  0  0  0  0
 15 53  1  0  0  0  0
 16 17  1  0  0  0  0
 16 54  1  0  0  0  0
 16 55  1  0  0  0  0
 17 56  1  0  0  0  0
 17 57  1  0  0  0  0
 17 58  1  0  0  0  0
 18 19  1  0  0  0  0
 18 59  1  0  0  0  0
 18 60  1  0  0  0  0
 19 20  1  0  0  0  0
 19 21  1  0  0  0  0
 19 61  1  6  0  0  0
 20 62  1  0  0  0  0
 21 22  1  0  0  0  0
 21 29  1  0  0  0  0
 21 63  1  1  0  0  0
 22 23  1  0  0  0  0
 22 64  1  0  0  0  0
 22 65  1  0  0  0  0
 23 24  2  0  0  0  0
 23 28  1  0  0  0  0
 24 25  1  0  0  0  0
 24 66  1  0  0  0  0
 25 26  2  0  0  0  0
 25 67  1  0  0  0  0
 26 27  1  0  0  0  0
 26 68  1  0  0  0  0
 27 28  2  0  0  0  0
 27 69  1  0  0  0  0
 28 70  1  0  0  0  0
 29 30  1  0  0  0  0
 29 71  1  0  0  0  0
 30 31  2  0  0  0  0
 30 32  1  0  0  0  0
 32 33  1  0  0  0  0
 33 34  1  0  0  0  0
 33 72  1  0  0  0  0
 33 73  1  0  0  0  0
 34 35  1  0  0  0  0
 34 74  1  0  0  0  0
 34 75  1  0  0  0  0
 35 36  1  0  0  0  0
 35 37  1  0  0  0  0
 36 40  1  0  0  0  0
 36 76  1  0  0  0  0
 36 77  1  0  0  0  0
 37 38  2  0  0  0  0
 37 39  1  0  0  0  0
 39 40  1  0  0  0  0
 39 78  1  0  0  0  0
 40 79  1  0  0  0  0
 40 80  1  0  0  0  0
M  END
$$$$
