MBY
 OpenBabel04111919213D

 36 38  0  0  1  0  0  0  0  0999 V2000
  -28.4224  -19.6682  -23.7423 O   0  0  0  0  0  0  0  0  0  0  0  0
  -27.2871  -19.2750  -23.5029 C   0  0  0  0  0  0  0  0  0  0  0  0
  -26.5840  -18.5148  -24.4172 N   0  3  0  0  0  0  0  0  0  0  0  0
  -25.3262  -18.0251  -24.1730 C   0  0  0  0  0  0  0  0  0  0  0  0
  -24.6275  -18.2018  -23.0899 N   0  0  0  0  0  0  0  0  0  0  0  0
  -25.2695  -18.9981  -22.1288 C   0  0  0  0  0  0  0  0  0  0  0  0
  -26.5296  -19.4978  -22.3072 C   0  0  0  0  0  0  0  0  0  0  0  0
  -24.6786  -19.3411  -20.8784 C   0  0  0  0  0  0  0  0  0  0  0  0
  -25.5696  -20.1258  -20.1569 C   0  0  0  0  0  0  0  0  0  0  0  0
  -27.0595  -20.3895  -20.9733 S   0  0  0  0  0  0  0  0  0  0  0  0
  -23.3033  -18.9482  -20.4413 C   0  0  0  0  0  0  0  0  0  0  0  0
  -23.1154  -17.5663  -19.8834 N   0  3  2  0  0  0  0  0  0  0  0  0
  -23.0998  -17.4030  -18.3626 C   0  0  2  0  0  0  0  0  0  0  0  0
  -24.2479  -18.1574  -17.6790 C   0  0  0  0  0  0  0  0  0  0  0  0
  -23.8699  -19.5123  -17.4366 O   0  0  0  0  0  0  0  0  0  0  0  0
  -23.2032  -15.8772  -18.1556 C   0  0  1  0  0  0  0  0  0  0  0  0
  -21.9179  -15.3858  -17.7783 O   0  0  0  0  0  0  0  0  0  0  0  0
  -23.6644  -15.2785  -19.4961 C   0  0  1  0  0  0  0  0  0  0  0  0
  -22.6072  -14.5650  -20.1391 O   0  0  0  0  0  0  0  0  0  0  0  0
  -24.0307  -16.4667  -20.3804 C   0  0  0  0  0  0  0  0  0  0  0  0
  -27.0586  -18.3384  -25.2914 H   0  0  0  0  0  0  0  0  0  0  0  0
  -24.9263  -17.4242  -25.0044 H   0  0  0  0  0  0  0  0  0  0  0  0
  -25.4325  -20.5630  -19.1759 H   0  0  0  0  0  0  0  0  0  0  0  0
  -22.6210  -19.0130  -21.3018 H   0  0  0  0  0  0  0  0  0  0  0  0
  -22.9107  -19.6543  -19.7049 H   0  0  0  0  0  0  0  0  0  0  0  0
  -22.1300  -17.8059  -18.0365 H   0  0  0  0  0  0  0  0  0  0  0  0
  -25.1533  -18.1649  -18.2930 H   0  0  0  0  0  0  0  0  0  0  0  0
  -24.5252  -17.7107  -16.7178 H   0  0  0  0  0  0  0  0  0  0  0  0
  -23.2566  -19.5336  -16.6751 H   0  0  0  0  0  0  0  0  0  0  0  0
  -23.9080  -15.6417  -17.3494 H   0  0  0  0  0  0  0  0  0  0  0  0
  -21.9896  -14.4415  -17.5502 H   0  0  0  0  0  0  0  0  0  0  0  0
  -24.5178  -14.6087  -19.3742 H   0  0  0  0  0  0  0  0  0  0  0  0
  -22.3607  -13.8005  -19.5874 H   0  0  0  0  0  0  0  0  0  0  0  0
  -25.0636  -16.7764  -20.2230 H   0  0  0  0  0  0  0  0  0  0  0  0
  -23.8024  -16.2993  -21.4374 H   0  0  0  0  0  0  0  0  0  0  0  0
  -22.1809  -17.2692  -20.1838 H   0  0  0  0  0  0  0  0  0  0  0  0
  1  2  2  0  0  0  0
  2  3  1  0  0  0  0
  2  7  1  0  0  0  0
  3  4  1  0  0  0  0
  3 21  1  0  0  0  0
  4  5  2  0  0  0  0
  4 22  1  0  0  0  0
  5  6  1  0  0  0  0
  6  7  2  0  0  0  0
  6  8  1  0  0  0  0
  7 10  1  0  0  0  0
  8  9  2  0  0  0  0
  8 11  1  0  0  0  0
  9 10  1  0  0  0  0
  9 23  1  0  0  0  0
 11 12  1  0  0  0  0
 11 24  1  0  0  0  0
 11 25  1  0  0  0  0
 12 13  1  0  0  0  0
 12 20  1  0  0  0  0
 12 36  1  6  0  0  0
 13 14  1  0  0  0  0
 13 16  1  0  0  0  0
 13 26  1  1  0  0  0
 14 15  1  0  0  0  0
 14 27  1  0  0  0  0
 14 28  1  0  0  0  0
 15 29  1  0  0  0  0
 16 17  1  0  0  0  0
 16 18  1  0  0  0  0
 16 30  1  1  0  0  0
 17 31  1  0  0  0  0
 18 19  1  0  0  0  0
 18 20  1  0  0  0  0
 18 32  1  1  0  0  0
 19 33  1  0  0  0  0
 20 34  1  0  0  0  0
 20 35  1  0  0  0  0
M  CHG  2   3   1  12   1
M  END
$$$$
