MEW
 OpenBabel04111920083D

 20 21  0  0  0  0  0  0  0  0999 V2000
    3.6620   14.0149   40.6927 C   0  0  0  0  0  0  0  0  0  0  0  0
    3.9291   13.5050   42.0882 C   0  0  0  0  0  0  0  0  0  0  0  0
    3.5263   14.2902   43.1344 N   0  3  0  0  0  0  0  0  0  0  0  0
    3.7522   13.8598   44.4391 C   0  0  0  0  0  0  0  0  0  0  0  0
    3.3522   14.6154   45.5379 C   0  0  0  0  0  0  0  0  0  0  0  0
    3.5908   14.1455   46.8332 C   0  0  0  0  0  0  0  0  0  0  0  0
    4.2268   12.9182   47.0352 C   0  0  0  0  0  0  0  0  0  0  0  0
    4.6282   12.1555   45.9428 C   0  0  0  0  0  0  0  0  0  0  0  0
    4.3861   12.6324   44.6505 C   0  0  0  0  0  0  0  0  0  0  0  0
    4.7858   11.8545   43.4506 C   0  0  0  0  0  0  0  0  0  0  0  0
    5.3456   10.7756   43.6221 O   0  0  0  0  0  0  0  0  0  0  0  0
    4.5231   12.3566   42.1920 N   0  0  0  0  0  0  0  0  0  0  0  0
    3.1608   14.9865   40.7172 H   0  0  0  0  0  0  0  0  0  0  0  0
    3.0263   13.2991   40.1639 H   0  0  0  0  0  0  0  0  0  0  0  0
    4.6104   14.1156   40.1581 H   0  0  0  0  0  0  0  0  0  0  0  0
    3.0815   15.1840   42.9813 H   0  0  0  0  0  0  0  0  0  0  0  0
    2.8503   15.5685   45.3979 H   0  0  0  0  0  0  0  0  0  0  0  0
    3.2758   14.7381   47.6880 H   0  0  0  0  0  0  0  0  0  0  0  0
    4.4047   12.5554   48.0450 H   0  0  0  0  0  0  0  0  0  0  0  0
    5.1226   11.1969   46.0911 H   0  0  0  0  0  0  0  0  0  0  0  0
  1  2  1  0  0  0  0
  1 13  1  0  0  0  0
  1 14  1  0  0  0  0
  1 15  1  0  0  0  0
  2  3  2  0  0  0  0
  2 12  1  0  0  0  0
  3  4  1  0  0  0  0
  3 16  1  0  0  0  0
  4  5  2  0  0  0  0
  4  9  1  0  0  0  0
  5  6  1  0  0  0  0
  5 17  1  0  0  0  0
  6  7  2  0  0  0  0
  6 18  1  0  0  0  0
  7  8  1  0  0  0  0
  7 19  1  0  0  0  0
  8  9  2  0  0  0  0
  8 20  1  0  0  0  0
  9 10  1  0  0  0  0
 10 11  2  0  0  0  0
 10 12  1  0  0  0  0
M  CHG  1   3   1
M  END
$$$$
