MFU
 OpenBabel04111918233D

 26 26  0  0  1  0  0  0  0  0999 V2000
  -11.5857   -4.0324   40.8387 C   0  0  2  0  0  0  0  0  0  0  0  0
  -10.1389   -4.1577   41.3725 C   0  0  2  0  0  0  0  0  0  0  0  0
  -10.0706   -5.3534   42.3437 C   0  0  1  0  0  0  0  0  0  0  0  0
  -10.5757   -6.6124   41.6410 C   0  0  1  0  0  0  0  0  0  0  0  0
  -12.0129   -6.3621   41.1507 C   0  0  2  0  0  0  0  0  0  0  0  0
  -12.5764   -7.5654   40.4023 C   0  0  0  0  0  0  0  0  0  0  0  0
  -12.4317   -3.6175   41.9219 O   0  0  0  0  0  0  0  0  0  0  0  0
   -9.7176   -2.9561   42.0306 O   0  0  0  0  0  0  0  0  0  0  0  0
   -8.7377   -5.6065   42.8293 O   0  0  0  0  0  0  0  0  0  0  0  0
   -9.7293   -6.9203   40.5304 O   0  0  0  0  0  0  0  0  0  0  0  0
  -12.0522   -5.2410   40.2487 O   0  0  0  0  0  0  0  0  0  0  0  0
  -13.7791   -3.4188   41.4970 C   0  0  0  0  0  0  0  0  0  0  0  0
  -11.6086   -3.2439   40.0770 H   0  0  0  0  0  0  0  0  0  0  0  0
   -9.4430   -4.3230   40.5409 H   0  0  0  0  0  0  0  0  0  0  0  0
  -10.6788   -5.1449   43.2281 H   0  0  0  0  0  0  0  0  0  0  0  0
  -10.5526   -7.4735   42.3176 H   0  0  0  0  0  0  0  0  0  0  0  0
  -12.6648   -6.1570   42.0006 H   0  0  0  0  0  0  0  0  0  0  0  0
  -13.6128   -7.3659   40.0919 H   0  0  0  0  0  0  0  0  0  0  0  0
  -12.5754   -8.4594   41.0388 H   0  0  0  0  0  0  0  0  0  0  0  0
  -12.0143   -7.7782   39.4917 H   0  0  0  0  0  0  0  0  0  0  0  0
  -10.4146   -2.7445   42.6765 H   0  0  0  0  0  0  0  0  0  0  0  0
   -8.1211   -5.4309   42.0961 H   0  0  0  0  0  0  0  0  0  0  0  0
   -8.8766   -7.1973   40.9150 H   0  0  0  0  0  0  0  0  0  0  0  0
  -14.3615   -3.0980   42.3664 H   0  0  0  0  0  0  0  0  0  0  0  0
  -14.2108   -4.3544   41.1236 H   0  0  0  0  0  0  0  0  0  0  0  0
  -13.8285   -2.6416   40.7315 H   0  0  0  0  0  0  0  0  0  0  0  0
  1  2  1  0  0  0  0
  1  7  1  0  0  0  0
  1 11  1  0  0  0  0
  1 13  1  6  0  0  0
  2  3  1  0  0  0  0
  2  8  1  0  0  0  0
  2 14  1  6  0  0  0
  3  4  1  0  0  0  0
  3  9  1  0  0  0  0
  3 15  1  1  0  0  0
  4  5  1  0  0  0  0
  4 10  1  0  0  0  0
  4 16  1  1  0  0  0
  5  6  1  0  0  0  0
  5 11  1  0  0  0  0
  5 17  1  1  0  0  0
  6 18  1  0  0  0  0
  6 19  1  0  0  0  0
  6 20  1  0  0  0  0
  7 12  1  0  0  0  0
  8 21  1  0  0  0  0
  9 22  1  0  0  0  0
 10 23  1  0  0  0  0
 12 24  1  0  0  0  0
 12 25  1  0  0  0  0
 12 26  1  0  0  0  0
M  END
$$$$
