MK5
 OpenBabel04111918333D

 77 78  0  0  1  0  0  0  0  0999 V2000
   15.4878   36.9608   18.7136 C   0  0  0  0  0  0  0  0  0  0  0  0
   14.9410   35.6548   18.5057 O   0  0  0  0  0  0  0  0  0  0  0  0
   15.6928   34.9218   17.6207 C   0  0  0  0  0  0  0  0  0  0  0  0
   15.4328   33.5512   17.5153 C   0  0  0  0  0  0  0  0  0  0  0  0
   16.1796   32.7640   16.6265 C   0  0  0  0  0  0  0  0  0  0  0  0
   16.6898   35.4888   16.8336 C   0  0  0  0  0  0  0  0  0  0  0  0
   17.4226   34.7182   15.9401 C   0  0  0  0  0  0  0  0  0  0  0  0
   17.1671   33.3484   15.8443 C   0  0  0  0  0  0  0  0  0  0  0  0
   18.0760   32.3688   14.6839 S   0  0  0  0  0  0  0  0  0  0  0  0
   18.6742   33.2861   13.7163 O   0  0  0  0  0  0  0  0  0  0  0  0
   17.2606   31.2905   14.2076 O   0  0  0  0  0  0  0  0  0  0  0  0
   19.3578   31.7272   15.6042 N   0  0  0  0  0  0  0  0  0  0  0  0
   20.0458   32.6245   16.5633 C   0  0  0  0  0  0  0  0  0  0  0  0
   21.3245   33.2446   16.0319 C   0  0  1  0  0  0  0  0  0  0  0  0
   22.1143   33.9215   17.1577 C   0  0  0  0  0  0  0  0  0  0  0  0
   22.1992   32.2167   15.3236 C   0  0  0  0  0  0  0  0  0  0  0  0
   22.9744   32.8723   14.2029 C   0  0  0  0  0  0  0  0  0  0  0  0
   19.0325   30.4256   16.2122 C   0  0  0  0  0  0  0  0  0  0  0  0
   19.9661   29.3407   15.6822 C   0  0  1  0  0  0  0  0  0  0  0  0
   19.9135   28.1791   16.5191 O   0  0  0  0  0  0  0  0  0  0  0  0
   19.6205   28.9441   14.2327 C   0  0  2  0  0  0  0  0  0  0  0  0
   18.2892   28.1868   14.1489 C   0  0  0  0  0  0  0  0  0  0  0  0
   17.9613   27.8292   12.7238 C   0  0  0  0  0  0  0  0  0  0  0  0
   18.1970   26.5345   12.2535 C   0  0  0  0  0  0  0  0  0  0  0  0
   17.9326   26.2038   10.9271 C   0  0  0  0  0  0  0  0  0  0  0  0
   17.4369   27.1677   10.0524 C   0  0  0  0  0  0  0  0  0  0  0  0
   17.2128   28.4647   10.5079 C   0  0  0  0  0  0  0  0  0  0  0  0
   17.4742   28.7933   11.8359 C   0  0  0  0  0  0  0  0  0  0  0  0
   20.6943   28.0931   13.6976 N   0  0  0  0  0  0  0  0  0  0  0  0
   21.5843   28.5437   12.8707 C   0  0  0  0  0  0  0  0  0  0  0  0
   21.6829   29.7260   12.5038 O   0  0  0  0  0  0  0  0  0  0  0  0
   22.5368   27.6346   12.4722 O   0  0  0  0  0  0  0  0  0  0  0  0
   23.5637   28.2898   11.7000 C   0  0  0  0  0  0  0  0  0  0  0  0
   24.3017   27.2814   10.8469 C   0  0  0  0  0  0  0  0  0  0  0  0
   23.3791   26.4490   10.1056 N   0  0  0  0  0  0  0  0  0  0  0  0
   23.2411   25.1199   10.3913 C   0  0  0  0  0  0  0  0  0  0  0  0
   23.9158   24.5660   11.2604 O   0  0  0  0  0  0  0  0  0  0  0  0
   22.1958   24.3384    9.5865 C   0  0  0  0  0  0  0  0  0  0  0  0
   21.5218   25.2678    8.2233 Cl  0  0  0  0  0  0  0  0  0  0  0  0
   20.8932   23.8959   10.7057 Cl  0  0  0  0  0  0  0  0  0  0  0  0
   14.8630   37.5166   19.4093 H   0  0  0  0  0  0  0  0  0  0  0  0
   15.5108   37.5264   17.7732 H   0  0  0  0  0  0  0  0  0  0  0  0
   16.5004   36.8758   19.1303 H   0  0  0  0  0  0  0  0  0  0  0  0
   14.6554   33.0894   18.1168 H   0  0  0  0  0  0  0  0  0  0  0  0
   15.9741   31.6958   16.5437 H   0  0  0  0  0  0  0  0  0  0  0  0
   16.9109   36.5465   16.8888 H   0  0  0  0  0  0  0  0  0  0  0  0
   18.1987   35.1917   15.3528 H   0  0  0  0  0  0  0  0  0  0  0  0
   20.2525   32.0714   17.4833 H   0  0  0  0  0  0  0  0  0  0  0  0
   19.3546   33.4092   16.8309 H   0  0  0  0  0  0  0  0  0  0  0  0
   21.0406   34.0208   15.3173 H   0  0  0  0  0  0  0  0  0  0  0  0
   23.0388   34.3602   16.7652 H   0  0  0  0  0  0  0  0  0  0  0  0
   22.3879   33.2025   17.9409 H   0  0  0  0  0  0  0  0  0  0  0  0
   21.5261   34.7235   17.6166 H   0  0  0  0  0  0  0  0  0  0  0  0
   21.5843   31.4378   14.8786 H   0  0  0  0  0  0  0  0  0  0  0  0
   22.8885   31.7422   16.0282 H   0  0  0  0  0  0  0  0  0  0  0  0
   23.5874   32.1328   13.6829 H   0  0  0  0  0  0  0  0  0  0  0  0
   23.6240   33.6532   14.6035 H   0  0  0  0  0  0  0  0  0  0  0  0
   22.2865   33.3266   13.4808 H   0  0  0  0  0  0  0  0  0  0  0  0
   17.9965   30.1736   16.0099 H   0  0  0  0  0  0  0  0  0  0  0  0
   19.1004   30.4987   17.2980 H   0  0  0  0  0  0  0  0  0  0  0  0
   20.9945   29.7077   15.7121 H   0  0  0  0  0  0  0  0  0  0  0  0
   20.2042   28.4358   17.4102 H   0  0  0  0  0  0  0  0  0  0  0  0
   19.5468   29.8624   13.6385 H   0  0  0  0  0  0  0  0  0  0  0  0
   17.4717   28.7876   14.5576 H   0  0  0  0  0  0  0  0  0  0  0  0
   18.3431   27.2716   14.7518 H   0  0  0  0  0  0  0  0  0  0  0  0
   18.5874   25.7770   12.9281 H   0  0  0  0  0  0  0  0  0  0  0  0
   18.1120   25.1911   10.5748 H   0  0  0  0  0  0  0  0  0  0  0  0
   17.2243   26.9088    9.0221 H   0  0  0  0  0  0  0  0  0  0  0  0
   16.8328   29.2223    9.8264 H   0  0  0  0  0  0  0  0  0  0  0  0
   17.2914   29.8076   12.1831 H   0  0  0  0  0  0  0  0  0  0  0  0
   20.7174   27.1372   13.9638 H   0  0  0  0  0  0  0  0  0  0  0  0
   24.2602   28.7784   12.3902 H   0  0  0  0  0  0  0  0  0  0  0  0
   23.1358   29.0495   11.0313 H   0  0  0  0  0  0  0  0  0  0  0  0
   24.9356   26.6592   11.4841 H   0  0  0  0  0  0  0  0  0  0  0  0
   24.9383   27.7947   10.1188 H   0  0  0  0  0  0  0  0  0  0  0  0
   22.7440   26.8585    9.4258 H   0  0  0  0  0  0  0  0  0  0  0  0
   22.6762   23.4402    9.1869 H   0  0  0  0  0  0  0  0  0  0  0  0
  1  2  1  0  0  0  0
  1 41  1  0  0  0  0
  1 42  1  0  0  0  0
  1 43  1  0  0  0  0
  2  3  1  0  0  0  0
  3  4  2  0  0  0  0
  3  6  1  0  0  0  0
  4  5  1  0  0  0  0
  4 44  1  0  0  0  0
  5  8  2  0  0  0  0
  5 45  1  0  0  0  0
  6  7  2  0  0  0  0
  6 46  1  0  0  0  0
  7  8  1  0  0  0  0
  7 47  1  0  0  0  0
  8  9  1  0  0  0  0
  9 10  2  0  0  0  0
  9 11  2  0  0  0  0
  9 12  1  0  0  0  0
 12 13  1  0  0  0  0
 12 18  1  0  0  0  0
 13 14  1  0  0  0  0
 13 48  1  0  0  0  0
 13 49  1  0  0  0  0
 14 15  1  0  0  0  0
 14 16  1  0  0  0  0
 14 50  1  6  0  0  0
 15 51  1  0  0  0  0
 15 52  1  0  0  0  0
 15 53  1  0  0  0  0
 16 17  1  0  0  0  0
 16 54  1  0  0  0  0
 16 55  1  0  0  0  0
 17 56  1  0  0  0  0
 17 57  1  0  0  0  0
 17 58  1  0  0  0  0
 18 19  1  0  0  0  0
 18 59  1  0  0  0  0
 18 60  1  0  0  0  0
 19 20  1  0  0  0  0
 19 21  1  0  0  0  0
 19 61  1  1  0  0  0
 20 62  1  0  0  0  0
 21 22  1  0  0  0  0
 21 29  1  0  0  0  0
 21 63  1  6  0  0  0
 22 23  1  0  0  0  0
 22 64  1  0  0  0  0
 22 65  1  0  0  0  0
 23 24  2  0  0  0  0
 23 28  1  0  0  0  0
 24 25  1  0  0  0  0
 24 66  1  0  0  0  0
 25 26  2  0  0  0  0
 25 67  1  0  0  0  0
 26 27  1  0  0  0  0
 26 68  1  0  0  0  0
 27 28  2  0  0  0  0
 27 69  1  0  0  0  0
 28 70  1  0  0  0  0
 29 30  1  0  0  0  0
 29 71  1  0  0  0  0
 30 31  2  0  0  0  0
 30 32  1  0  0  0  0
 32 33  1  0  0  0  0
 33 34  1  0  0  0  0
 33 72  1  0  0  0  0
 33 73  1  0  0  0  0
 34 35  1  0  0  0  0
 34 74  1  0  0  0  0
 34 75  1  0  0  0  0
 35 36  1  0  0  0  0
 35 76  1  0  0  0  0
 36 37  2  0  0  0  0
 36 38  1  0  0  0  0
 38 39  1  0  0  0  0
 38 40  1  0  0  0  0
 38 77  1  0  0  0  0
M  END
$$$$
