MOF
 OpenBabel04111920593D

 67 71  0  0  1  0  0  0  0  0999 V2000
   27.7798  -56.1472  -42.1227 O   0  0  0  0  0  0  0  0  0  0  0  0
   27.3500  -55.1882  -41.5871 C   0  0  0  0  0  0  0  0  0  0  0  0
   28.0668  -53.8911  -41.5854 C   0  0  0  0  0  0  0  0  0  0  0  0
   26.0868  -55.2475  -40.8339 C   0  0  0  0  0  0  0  0  0  0  0  0
   25.5903  -54.1937  -40.2194 C   0  0  0  0  0  0  0  0  0  0  0  0
   24.3377  -54.3459  -39.4150 C   0  0  0  0  0  0  0  0  0  0  0  0
   26.2937  -52.8351  -40.1785 C   0  0  1  0  0  0  0  0  0  0  0  0
   27.5936  -52.8417  -40.9531 C   0  0  0  0  0  0  0  0  0  0  0  0
   25.3640  -51.8659  -40.9096 C   0  0  0  0  0  0  0  0  0  0  0  0
   26.6086  -52.5466  -38.6857 C   0  0  1  0  0  0  0  0  0  0  0  0
   27.6813  -53.9567  -38.0585 Cl  0  0  0  0  0  0  0  0  0  0  0  0
   27.5159  -51.3228  -38.4107 C   0  0  1  0  0  0  0  0  0  0  0  0
   27.1085  -50.1442  -39.0885 O   0  0  0  0  0  0  0  0  0  0  0  0
   25.2902  -52.5549  -37.8701 C   0  0  1  0  0  0  0  0  0  0  0  0
   24.5666  -53.9071  -37.9839 C   0  0  0  0  0  0  0  0  0  0  0  0
   25.5967  -52.3103  -36.4118 C   0  0  2  0  0  0  0  0  0  0  0  0
   24.4522  -52.3136  -35.4187 C   0  0  0  0  0  0  0  0  0  0  0  0
   25.0482  -51.5910  -34.1933 C   0  0  1  0  0  0  0  0  0  0  0  0
   24.8246  -52.4959  -33.0017 C   0  0  0  0  0  0  0  0  0  0  0  0
   26.3562  -51.0152  -36.1433 C   0  0  1  0  0  0  0  0  0  0  0  0
   27.6734  -51.0427  -36.9143 C   0  0  0  0  0  0  0  0  0  0  0  0
   25.5376  -49.7512  -36.4697 C   0  0  0  0  0  0  0  0  0  0  0  0
   26.5273  -51.1661  -34.6057 C   0  0  1  0  0  0  0  0  0  0  0  0
   26.9991  -49.8702  -33.9462 C   0  0  2  0  0  0  0  0  0  0  0  0
   26.0160  -48.9630  -33.4907 O   0  0  0  0  0  0  0  0  0  0  0  0
   28.4135  -49.3089  -34.0979 C   0  0  0  0  0  0  0  0  0  0  0  0
   28.5064  -47.6081  -34.6291 Cl  0  0  0  0  0  0  0  0  0  0  0  0
   27.5252  -52.2809  -34.3307 O   0  0  0  0  0  0  0  0  0  0  0  0
   28.1874  -52.5558  -33.1562 C   0  0  0  0  0  0  0  0  0  0  0  0
   28.1919  -51.8807  -32.1415 O   0  0  0  0  0  0  0  0  0  0  0  0
   28.9496  -53.7810  -33.1881 C   0  0  0  0  0  0  0  0  0  0  0  0
   29.1957  -54.7544  -34.1259 C   0  0  0  0  0  0  0  0  0  0  0  0
   30.0416  -55.7031  -33.5101 C   0  0  0  0  0  0  0  0  0  0  0  0
   30.2603  -55.2892  -32.2222 C   0  0  0  0  0  0  0  0  0  0  0  0
   29.6147  -54.1227  -32.0053 O   0  0  0  0  0  0  0  0  0  0  0  0
   29.0158  -53.8838  -42.1169 H   0  0  0  0  0  0  0  0  0  0  0  0
   25.6286  -56.2346  -40.8010 H   0  0  0  0  0  0  0  0  0  0  0  0
   24.0270  -55.3989  -39.4249 H   0  0  0  0  0  0  0  0  0  0  0  0
   23.5304  -53.7577  -39.8587 H   0  0  0  0  0  0  0  0  0  0  0  0
   28.1669  -51.9209  -40.9454 H   0  0  0  0  0  0  0  0  0  0  0  0
   25.2346  -52.1858  -41.9581 H   0  0  0  0  0  0  0  0  0  0  0  0
   25.7600  -50.8499  -40.9186 H   0  0  0  0  0  0  0  0  0  0  0  0
   24.3730  -51.8474  -40.4493 H   0  0  0  0  0  0  0  0  0  0  0  0
   28.5155  -51.5675  -38.7971 H   0  0  0  0  0  0  0  0  0  0  0  0
   27.7303  -49.4281  -38.8627 H   0  0  0  0  0  0  0  0  0  0  0  0
   24.6321  -51.7700  -38.2537 H   0  0  0  0  0  0  0  0  0  0  0  0
   25.1638  -54.6756  -37.4712 H   0  0  0  0  0  0  0  0  0  0  0  0
   23.6048  -53.8356  -37.4687 H   0  0  0  0  0  0  0  0  0  0  0  0
   26.2469  -53.1364  -36.0986 H   0  0  0  0  0  0  0  0  0  0  0  0
   24.1464  -53.3365  -35.1659 H   0  0  0  0  0  0  0  0  0  0  0  0
   23.5758  -51.7758  -35.7957 H   0  0  0  0  0  0  0  0  0  0  0  0
   24.4710  -50.6774  -34.0131 H   0  0  0  0  0  0  0  0  0  0  0  0
   23.7426  -52.6857  -32.8904 H   0  0  0  0  0  0  0  0  0  0  0  0
   25.1886  -52.0306  -32.0894 H   0  0  0  0  0  0  0  0  0  0  0  0
   25.3177  -53.4621  -33.1493 H   0  0  0  0  0  0  0  0  0  0  0  0
   28.1849  -50.0891  -36.7932 H   0  0  0  0  0  0  0  0  0  0  0  0
   28.3093  -51.8295  -36.4906 H   0  0  0  0  0  0  0  0  0  0  0  0
   25.4127  -49.6243  -37.5419 H   0  0  0  0  0  0  0  0  0  0  0  0
   26.0378  -48.8594  -36.0769 H   0  0  0  0  0  0  0  0  0  0  0  0
   24.5403  -49.7942  -36.0212 H   0  0  0  0  0  0  0  0  0  0  0  0
   27.1734  -50.3525  -33.0238 H   0  0  0  0  0  0  0  0  0  0  0  0
   26.5407  -48.2161  -33.1454 H   0  0  0  0  0  0  0  0  0  0  0  0
   29.0074  -49.9341  -34.7578 H   0  0  0  0  0  0  0  0  0  0  0  0
   28.8378  -49.3571  -33.0832 H   0  0  0  0  0  0  0  0  0  0  0  0
   28.8269  -54.7975  -35.1410 H   0  0  0  0  0  0  0  0  0  0  0  0
   30.4458  -56.5901  -33.9408 H   0  0  0  0  0  0  0  0  0  0  0  0
   30.8376  -55.7417  -31.4299 H   0  0  0  0  0  0  0  0  0  0  0  0
  1  2  2  0  0  0  0
  2  3  1  0  0  0  0
  2  4  1  0  0  0  0
  3  8  2  0  0  0  0
  3 36  1  0  0  0  0
  4  5  2  0  0  0  0
  4 37  1  0  0  0  0
  5  6  1  0  0  0  0
  5  7  1  0  0  0  0
  6 15  1  0  0  0  0
  6 38  1  0  0  0  0
  6 39  1  0  0  0  0
  7  8  1  0  0  0  0
  7  9  1  6  0  0  0
  7 10  1  0  0  0  0
  8 40  1  0  0  0  0
  9 41  1  0  0  0  0
  9 42  1  0  0  0  0
  9 43  1  0  0  0  0
 10 11  1  1  0  0  0
 10 12  1  0  0  0  0
 10 14  1  0  0  0  0
 12 13  1  0  0  0  0
 12 21  1  0  0  0  0
 12 44  1  6  0  0  0
 13 45  1  0  0  0  0
 14 15  1  0  0  0  0
 14 16  1  0  0  0  0
 14 46  1  6  0  0  0
 15 47  1  0  0  0  0
 15 48  1  0  0  0  0
 16 17  1  0  0  0  0
 16 20  1  0  0  0  0
 16 49  1  1  0  0  0
 17 18  1  0  0  0  0
 17 50  1  0  0  0  0
 17 51  1  0  0  0  0
 18 19  1  0  0  0  0
 18 23  1  0  0  0  0
 18 52  1  1  0  0  0
 19 53  1  0  0  0  0
 19 54  1  0  0  0  0
 19 55  1  0  0  0  0
 20 21  1  0  0  0  0
 20 22  1  6  0  0  0
 20 23  1  0  0  0  0
 21 56  1  0  0  0  0
 21 57  1  0  0  0  0
 22 58  1  0  0  0  0
 22 59  1  0  0  0  0
 22 60  1  0  0  0  0
 23 24  1  0  0  0  0
 23 28  1  1  0  0  0
 24 25  1  0  0  0  0
 24 26  1  0  0  0  0
 24 61  1  1  0  0  0
 25 62  1  0  0  0  0
 26 27  1  0  0  0  0
 26 63  1  0  0  0  0
 26 64  1  0  0  0  0
 28 29  1  0  0  0  0
 29 30  2  0  0  0  0
 29 31  1  0  0  0  0
 31 32  2  0  0  0  0
 31 35  1  0  0  0  0
 32 33  1  0  0  0  0
 32 65  1  0  0  0  0
 33 34  2  0  0  0  0
 33 66  1  0  0  0  0
 34 35  1  0  0  0  0
 34 67  1  0  0  0  0
M  END
$$$$
