MRW
 OpenBabel04111920283D

 18 19  0  0  0  0  0  0  0  0999 V2000
    3.0519  -26.2130  -35.9454 O   0  0  0  0  0  0  0  0  0  0  0  0
    3.8188  -27.2527  -35.5042 C   0  0  0  0  0  0  0  0  0  0  0  0
    4.3822  -28.0599  -36.4753 C   0  0  0  0  0  0  0  0  0  0  0  0
    5.1473  -29.1069  -36.0574 C   0  0  0  0  0  0  0  0  0  0  0  0
    5.3893  -29.4048  -34.7460 N   0  0  0  0  0  0  0  0  0  0  0  0
    4.8358  -28.6084  -33.8090 C   0  0  0  0  0  0  0  0  0  0  0  0
    5.0651  -28.8848  -32.4614 C   0  0  0  0  0  0  0  0  0  0  0  0
    4.5103  -28.0822  -31.4664 C   0  0  0  0  0  0  0  0  0  0  0  0
    4.8105  -28.4415  -29.8089 Cl  0  0  0  0  0  0  0  0  0  0  0  0
    3.7186  -26.9921  -31.8011 C   0  0  0  0  0  0  0  0  0  0  0  0
    3.4754  -26.6968  -33.1375 C   0  0  0  0  0  0  0  0  0  0  0  0
    4.0342  -27.5064  -34.1441 C   0  0  0  0  0  0  0  0  0  0  0  0
    2.7192  -25.7314  -35.1707 H   0  0  0  0  0  0  0  0  0  0  0  0
    4.2176  -27.8630  -37.5294 H   0  0  0  0  0  0  0  0  0  0  0  0
    5.6150  -29.7771  -36.7811 H   0  0  0  0  0  0  0  0  0  0  0  0
    5.6838  -29.7340  -32.1936 H   0  0  0  0  0  0  0  0  0  0  0  0
    3.2822  -26.3590  -31.0367 H   0  0  0  0  0  0  0  0  0  0  0  0
    2.8567  -25.8428  -33.3753 H   0  0  0  0  0  0  0  0  0  0  0  0
  1  2  1  0  0  0  0
  1 13  1  0  0  0  0
  2  3  2  0  0  0  0
  2 12  1  0  0  0  0
  3  4  1  0  0  0  0
  3 14  1  0  0  0  0
  4  5  2  0  0  0  0
  4 15  1  0  0  0  0
  5  6  1  0  0  0  0
  6  7  2  0  0  0  0
  6 12  1  0  0  0  0
  7  8  1  0  0  0  0
  7 16  1  0  0  0  0
  8  9  1  0  0  0  0
  8 10  2  0  0  0  0
 10 11  1  0  0  0  0
 10 17  1  0  0  0  0
 11 12  2  0  0  0  0
 11 18  1  0  0  0  0
M  END
$$$$
