MT6
 OpenBabel04111922403D

 31 33  0  0  0  0  0  0  0  0999 V2000
   10.7140   -8.3417   -4.4604 C   0  0  0  0  0  0  0  0  0  0  0  0
   10.8286   -6.9434   -4.5302 C   0  0  0  0  0  0  0  0  0  0  0  0
   12.1230   -4.9434   -3.4588 C   0  0  0  0  0  0  0  0  0  0  0  0
   11.5876   -6.2138   -3.5394 C   0  0  0  0  0  0  0  0  0  0  0  0
   13.9059   -4.2194   -0.2249 N   0  3  0  0  0  0  0  0  0  0  0  0
   13.5259   -5.3914    0.4140 C   0  0  0  0  0  0  0  0  0  0  0  0
   12.7341   -4.8694   -2.1882 C   0  0  0  0  0  0  0  0  0  0  0  0
   10.6383  -11.1782   -4.7012 O   0  0  0  0  0  0  0  0  0  0  0  0
    9.7656  -10.4874   -5.2031 C   0  0  0  0  0  0  0  0  0  0  0  0
    8.5403  -10.9077   -5.5979 O   0  0  0  0  0  0  0  0  0  0  0  0
    8.2211  -12.2264   -5.1530 C   0  0  0  0  0  0  0  0  0  0  0  0
    9.8826   -9.0244   -5.3526 C   0  0  0  0  0  0  0  0  0  0  0  0
    9.1835   -8.3205   -6.3355 C   0  0  0  0  0  0  0  0  0  0  0  0
    9.3518   -6.9428   -6.4572 C   0  0  0  0  0  0  0  0  0  0  0  0
   10.1581   -6.2592   -5.5459 C   0  0  0  0  0  0  0  0  0  0  0  0
   11.7873   -6.8860   -2.3742 O   0  0  0  0  0  0  0  0  0  0  0  0
   12.4512   -6.0579   -1.5382 C   0  0  0  0  0  0  0  0  0  0  0  0
   12.8035   -6.3437   -0.2086 C   0  0  0  0  0  0  0  0  0  0  0  0
   13.5129   -3.8528   -1.5128 C   0  0  0  0  0  0  0  0  0  0  0  0
   13.8132   -2.7756   -2.0158 O   0  0  0  0  0  0  0  0  0  0  0  0
   11.2509   -8.8960   -3.6897 H   0  0  0  0  0  0  0  0  0  0  0  0
   12.0889   -4.1723   -4.2165 H   0  0  0  0  0  0  0  0  0  0  0  0
   14.5082   -3.5590    0.2458 H   0  0  0  0  0  0  0  0  0  0  0  0
   13.8300   -5.4978    1.4489 H   0  0  0  0  0  0  0  0  0  0  0  0
    7.2659  -12.5063   -5.6030 H   0  0  0  0  0  0  0  0  0  0  0  0
    8.1012  -12.2173   -4.0649 H   0  0  0  0  0  0  0  0  0  0  0  0
    8.9766  -12.9624   -5.4494 H   0  0  0  0  0  0  0  0  0  0  0  0
    8.5099   -8.8376   -7.0122 H   0  0  0  0  0  0  0  0  0  0  0  0
    8.8559   -6.3910   -7.2456 H   0  0  0  0  0  0  0  0  0  0  0  0
   10.2409   -5.1781   -5.6156 H   0  0  0  0  0  0  0  0  0  0  0  0
   12.4824   -7.2610    0.2590 H   0  0  0  0  0  0  0  0  0  0  0  0
  1  2  2  0  0  0  0
  1 12  1  0  0  0  0
  1 21  1  0  0  0  0
  2  4  1  0  0  0  0
  2 15  1  0  0  0  0
  3  4  2  0  0  0  0
  3  7  1  0  0  0  0
  3 22  1  0  0  0  0
  4 16  1  0  0  0  0
  5  6  1  0  0  0  0
  5 19  1  0  0  0  0
  5 23  1  0  0  0  0
  6 18  2  0  0  0  0
  6 24  1  0  0  0  0
  7 17  2  0  0  0  0
  7 19  1  0  0  0  0
  8  9  2  0  0  0  0
  9 10  1  0  0  0  0
  9 12  1  0  0  0  0
 10 11  1  0  0  0  0
 11 25  1  0  0  0  0
 11 26  1  0  0  0  0
 11 27  1  0  0  0  0
 12 13  2  0  0  0  0
 13 14  1  0  0  0  0
 13 28  1  0  0  0  0
 14 15  2  0  0  0  0
 14 29  1  0  0  0  0
 15 30  1  0  0  0  0
 16 17  1  0  0  0  0
 17 18  1  0  0  0  0
 18 31  1  0  0  0  0
 19 20  2  0  0  0  0
M  CHG  1   5   1
M  END
$$$$
