MYR
 OpenBabel04111921513D

 41 40  0  0  0  0  0  0  0  0999 V2000
   -5.7343  -16.4699    1.6222 C   0  0  0  0  0  0  0  0  0  0  0  0
   -6.8557  -15.8846    1.6233 O   0  0  0  0  0  0  0  0  0  0  0  0
   -4.6960  -16.2926    0.9254 O   0  0  0  0  0  0  0  0  0  0  0  0
   -5.5727  -17.6190    2.6778 C   0  0  0  0  0  0  0  0  0  0  0  0
   -6.8377  -18.0243    3.4215 C   0  0  0  0  0  0  0  0  0  0  0  0
   -6.5962  -19.1935    4.3785 C   0  0  0  0  0  0  0  0  0  0  0  0
   -7.9147  -19.6954    4.9779 C   0  0  0  0  0  0  0  0  0  0  0  0
   -7.7382  -20.7576    6.0680 C   0  0  0  0  0  0  0  0  0  0  0  0
   -6.9032  -21.9671    5.6781 C   0  0  0  0  0  0  0  0  0  0  0  0
   -7.5097  -22.7395    4.5206 C   0  0  0  0  0  0  0  0  0  0  0  0
   -6.5599  -23.8477    4.0962 C   0  0  0  0  0  0  0  0  0  0  0  0
   -7.1567  -24.7317    3.0169 C   0  0  0  0  0  0  0  0  0  0  0  0
   -7.4569  -24.0715    1.7156 C   0  0  0  0  0  0  0  0  0  0  0  0
   -6.6767  -23.1118    1.1893 C   0  0  0  0  0  0  0  0  0  0  0  0
   -6.7248  -22.8106   -0.2658 C   0  0  0  0  0  0  0  0  0  0  0  0
   -7.0390  -21.3652   -0.5459 C   0  0  0  0  0  0  0  0  0  0  0  0
   -4.8018  -17.3006    3.3843 H   0  0  0  0  0  0  0  0  0  0  0  0
   -5.1689  -18.4869    2.1300 H   0  0  0  0  0  0  0  0  0  0  0  0
   -7.6054  -18.3007    2.6944 H   0  0  0  0  0  0  0  0  0  0  0  0
   -7.1983  -17.1648    3.9946 H   0  0  0  0  0  0  0  0  0  0  0  0
   -5.9256  -18.8799    5.1885 H   0  0  0  0  0  0  0  0  0  0  0  0
   -6.1068  -20.0134    3.8386 H   0  0  0  0  0  0  0  0  0  0  0  0
   -8.5511  -20.0919    4.1777 H   0  0  0  0  0  0  0  0  0  0  0  0
   -8.4606  -18.8532    5.4192 H   0  0  0  0  0  0  0  0  0  0  0  0
   -8.7318  -21.1038    6.3789 H   0  0  0  0  0  0  0  0  0  0  0  0
   -7.2687  -20.2930    6.9412 H   0  0  0  0  0  0  0  0  0  0  0  0
   -6.8259  -22.6364    6.5435 H   0  0  0  0  0  0  0  0  0  0  0  0
   -5.8813  -21.6568    5.4278 H   0  0  0  0  0  0  0  0  0  0  0  0
   -7.6989  -22.0683    3.6749 H   0  0  0  0  0  0  0  0  0  0  0  0
   -8.4772  -23.1664    4.8166 H   0  0  0  0  0  0  0  0  0  0  0  0
   -6.3228  -24.4866    4.9508 H   0  0  0  0  0  0  0  0  0  0  0  0
   -5.6109  -23.4132    3.7544 H   0  0  0  0  0  0  0  0  0  0  0  0
   -8.0696  -25.2050    3.3916 H   0  0  0  0  0  0  0  0  0  0  0  0
   -6.4349  -25.5273    2.7972 H   0  0  0  0  0  0  0  0  0  0  0  0
   -8.2666  -24.5014    1.1349 H   0  0  0  0  0  0  0  0  0  0  0  0
   -5.8936  -22.6398    1.7736 H   0  0  0  0  0  0  0  0  0  0  0  0
   -7.4726  -23.4489   -0.7444 H   0  0  0  0  0  0  0  0  0  0  0  0
   -5.7530  -23.0707   -0.7022 H   0  0  0  0  0  0  0  0  0  0  0  0
   -7.0877  -21.2184   -1.6279 H   0  0  0  0  0  0  0  0  0  0  0  0
   -6.2645  -20.7071   -0.1400 H   0  0  0  0  0  0  0  0  0  0  0  0
   -8.0038  -21.0910   -0.1112 H   0  0  0  0  0  0  0  0  0  0  0  0
  1  2  2  0  0  0  0
  1  3  1  0  0  0  0
  1  4  1  0  0  0  0
  4  5  1  0  0  0  0
  4 17  1  0  0  0  0
  4 18  1  0  0  0  0
  5  6  1  0  0  0  0
  5 19  1  0  0  0  0
  5 20  1  0  0  0  0
  6  7  1  0  0  0  0
  6 21  1  0  0  0  0
  6 22  1  0  0  0  0
  7  8  1  0  0  0  0
  7 23  1  0  0  0  0
  7 24  1  0  0  0  0
  8  9  1  0  0  0  0
  8 25  1  0  0  0  0
  8 26  1  0  0  0  0
  9 10  1  0  0  0  0
  9 27  1  0  0  0  0
  9 28  1  0  0  0  0
 10 11  1  0  0  0  0
 10 29  1  0  0  0  0
 10 30  1  0  0  0  0
 11 12  1  0  0  0  0
 11 31  1  0  0  0  0
 11 32  1  0  0  0  0
 12 13  1  0  0  0  0
 12 33  1  0  0  0  0
 12 34  1  0  0  0  0
 13 14  2  0  0  0  0
 13 35  1  0  0  0  0
 14 15  1  0  0  0  0
 14 36  1  0  0  0  0
 15 16  1  0  0  0  0
 15 37  1  0  0  0  0
 15 38  1  0  0  0  0
 16 39  1  0  0  0  0
 16 40  1  0  0  0  0
 16 41  1  0  0  0  0
M  END
$$$$
