MZM
 OpenBabel04111922423D

 23 23  0  0  0  0  0  0  0  0999 V2000
   50.5574   41.0284   90.8074 N   0  0  0  0  0  0  0  0  0  0  0  0
   52.2397   41.1106   90.7881 S   0  0  0  0  0  0  0  0  0  0  0  0
   52.5923   41.9073   91.9363 O   0  0  0  0  0  0  0  0  0  0  0  0
   52.7368   39.7680   90.5927 O   0  0  0  0  0  0  0  0  0  0  0  0
   52.7119   42.0251   89.3397 C   0  0  0  0  0  0  0  0  0  0  0  0
   53.5203   43.5071   89.5860 S   0  0  0  0  0  0  0  0  0  0  0  0
   53.5239   43.7911   87.8709 C   0  0  0  0  0  0  0  0  0  0  0  0
   52.9460   42.7290   87.2681 N   0  3  0  0  0  0  0  0  0  0  0  0
   52.7674   42.5247   85.8297 C   0  0  0  0  0  0  0  0  0  0  0  0
   52.4573   41.7057   88.0876 N   0  0  0  0  0  0  0  0  0  0  0  0
   54.0092   44.8640   87.2335 N   0  0  0  0  0  0  0  0  0  0  0  0
   54.5859   45.9766   87.9200 C   0  0  0  0  0  0  0  0  0  0  0  0
   54.6290   46.0133   89.1372 O   0  0  0  0  0  0  0  0  0  0  0  0
   55.1134   47.0769   87.0617 C   0  0  0  0  0  0  0  0  0  0  0  0
   50.1755   41.8311   91.3130 H   0  0  0  0  0  0  0  0  0  0  0  0
   50.2759   40.1549   91.2631 H   0  0  0  0  0  0  0  0  0  0  0  0
   52.2703   41.5693   85.6373 H   0  0  0  0  0  0  0  0  0  0  0  0
   53.7485   42.5241   85.3468 H   0  0  0  0  0  0  0  0  0  0  0  0
   52.1546   43.3363   85.4282 H   0  0  0  0  0  0  0  0  0  0  0  0
   53.9479   44.8506   86.2295 H   0  0  0  0  0  0  0  0  0  0  0  0
   55.5322   47.8544   87.7124 H   0  0  0  0  0  0  0  0  0  0  0  0
   54.3043   47.5122   86.4733 H   0  0  0  0  0  0  0  0  0  0  0  0
   55.9089   46.6984   86.4165 H   0  0  0  0  0  0  0  0  0  0  0  0
  1  2  1  0  0  0  0
  1 15  1  0  0  0  0
  1 16  1  0  0  0  0
  2  3  2  0  0  0  0
  2  4  2  0  0  0  0
  2  5  1  0  0  0  0
  5  6  1  0  0  0  0
  5 10  2  0  0  0  0
  6  7  1  0  0  0  0
  7  8  2  0  0  0  0
  7 11  1  0  0  0  0
  8  9  1  0  0  0  0
  8 10  1  0  0  0  0
  9 17  1  0  0  0  0
  9 18  1  0  0  0  0
  9 19  1  0  0  0  0
 11 12  1  0  0  0  0
 11 20  1  0  0  0  0
 12 13  2  0  0  0  0
 12 14  1  0  0  0  0
 14 21  1  0  0  0  0
 14 22  1  0  0  0  0
 14 23  1  0  0  0  0
M  CHG  1   8   1
M  END
$$$$
