N4A
 OpenBabel04111919433D

 66 70  0  0  0  0  0  0  0  0999 V2000
   17.9741   64.1053   19.7641 O   0  0  0  0  0  0  0  0  0  0  0  0
   17.2628   64.7316   20.8597 S   0  0  0  0  0  0  0  0  0  0  0  0
   17.9367   65.6062   21.7853 O   0  0  0  0  0  0  0  0  0  0  0  0
   15.8970   65.6167   20.1764 C   0  0  0  0  0  0  0  0  0  0  0  0
   15.3231   66.6589   20.9126 C   0  0  0  0  0  0  0  0  0  0  0  0
   14.4291   67.5393   20.3120 C   0  0  0  0  0  0  0  0  0  0  0  0
   14.1377   67.4032   18.9533 C   0  0  0  0  0  0  0  0  0  0  0  0
   13.2676   68.2849   18.3073 C   0  0  0  0  0  0  0  0  0  0  0  0
   13.0000   68.1307   16.9472 C   0  0  0  0  0  0  0  0  0  0  0  0
   13.6107   67.1109   16.2201 C   0  0  0  0  0  0  0  0  0  0  0  0
   14.4854   66.2315   16.8476 C   0  0  0  0  0  0  0  0  0  0  0  0
   14.7451   66.3621   18.2087 C   0  0  0  0  0  0  0  0  0  0  0  0
   15.6193   65.4726   18.8233 C   0  0  0  0  0  0  0  0  0  0  0  0
   16.6454   63.4498   21.7115 N   0  0  0  0  0  0  0  0  0  0  0  0
   16.1755   63.5034   23.0583 C   0  0  0  0  0  0  0  0  0  0  0  0
   16.5122   62.4113   23.8564 C   0  0  0  0  0  0  0  0  0  0  0  0
   17.4234   61.5731   23.2091 O   0  0  0  0  0  0  0  0  0  0  0  0
   18.1225   60.6914   23.9556 C   0  0  0  0  0  0  0  0  0  0  0  0
   18.2135   59.4116   23.4398 C   0  0  0  0  0  0  0  0  0  0  0  0
   18.8824   58.4584   24.1723 C   0  0  0  0  0  0  0  0  0  0  0  0
   19.4835   58.7905   25.4066 C   0  0  0  0  0  0  0  0  0  0  0  0
   20.1797   57.7441   26.1727 C   0  0  0  0  0  0  0  0  0  0  0  0
   20.7790   58.0005   27.3187 N   0  0  0  0  0  0  0  0  0  0  0  0
   20.1627   56.5240   25.7096 N   0  0  0  0  0  0  0  0  0  0  0  0
   19.4218   60.1030   25.8694 C   0  0  0  0  0  0  0  0  0  0  0  0
   18.7587   61.0617   25.1326 C   0  0  0  0  0  0  0  0  0  0  0  0
   15.2333   64.3678   23.5604 C   0  0  0  0  0  0  0  0  0  0  0  0
   14.6332   64.0671   24.7843 C   0  0  0  0  0  0  0  0  0  0  0  0
   15.0725   62.9730   25.5375 C   0  0  0  0  0  0  0  0  0  0  0  0
   16.0056   62.1163   25.0810 N   0  0  0  0  0  0  0  0  0  0  0  0
   14.5356   62.6654   26.7812 O   0  0  0  0  0  0  0  0  0  0  0  0
   14.7619   63.5453   27.8213 C   0  0  0  0  0  0  0  0  0  0  0  0
   14.8872   63.0526   29.1242 C   0  0  0  0  0  0  0  0  0  0  0  0
   15.1044   63.9354   30.2103 C   0  0  0  0  0  0  0  0  0  0  0  0
   15.1722   65.3256   30.0091 C   0  0  0  0  0  0  0  0  0  0  0  0
   15.3963   66.3271   31.0693 C   0  0  0  0  0  0  0  0  0  0  0  0
   15.9831   67.4653   30.7553 N   0  0  0  0  0  0  0  0  0  0  0  0
   14.9932   66.1348   32.3026 N   0  0  0  0  0  0  0  0  0  0  0  0
   15.0094   65.7909   28.7070 C   0  0  0  0  0  0  0  0  0  0  0  0
   14.8169   64.9248   27.6496 C   0  0  0  0  0  0  0  0  0  0  0  0
   15.6141   66.8355   21.9417 H   0  0  0  0  0  0  0  0  0  0  0  0
   13.9969   68.3504   20.8944 H   0  0  0  0  0  0  0  0  0  0  0  0
   12.7898   69.0930   18.8554 H   0  0  0  0  0  0  0  0  0  0  0  0
   12.3124   68.8082   16.4518 H   0  0  0  0  0  0  0  0  0  0  0  0
   13.4065   66.9964   15.1597 H   0  0  0  0  0  0  0  0  0  0  0  0
   14.9602   65.4405   16.2721 H   0  0  0  0  0  0  0  0  0  0  0  0
   16.1321   64.7197   18.2270 H   0  0  0  0  0  0  0  0  0  0  0  0
   17.2964   62.6647   21.5753 H   0  0  0  0  0  0  0  0  0  0  0  0
   17.7480   59.1459   22.4930 H   0  0  0  0  0  0  0  0  0  0  0  0
   18.8953   57.4627   23.7454 H   0  0  0  0  0  0  0  0  0  0  0  0
   21.2482   57.2678   27.8245 H   0  0  0  0  0  0  0  0  0  0  0  0
   19.7249   56.2414   24.8506 H   0  0  0  0  0  0  0  0  0  0  0  0
   20.6393   55.7586   26.1898 H   0  0  0  0  0  0  0  0  0  0  0  0
   19.8618   60.4150   26.8087 H   0  0  0  0  0  0  0  0  0  0  0  0
   18.7039   62.0850   25.4898 H   0  0  0  0  0  0  0  0  0  0  0  0
   14.8894   65.2327   23.0209 H   0  0  0  0  0  0  0  0  0  0  0  0
   13.8292   64.7116   25.1245 H   0  0  0  0  0  0  0  0  0  0  0  0
   14.8287   61.9775   29.3106 H   0  0  0  0  0  0  0  0  0  0  0  0
   15.2361   63.5136   31.2049 H   0  0  0  0  0  0  0  0  0  0  0  0
   16.1197   68.2105   31.4231 H   0  0  0  0  0  0  0  0  0  0  0  0
   14.5031   65.2916   32.5741 H   0  0  0  0  0  0  0  0  0  0  0  0
   15.1002   66.8525   33.0080 H   0  0  0  0  0  0  0  0  0  0  0  0
   15.0120   66.8494   28.4611 H   0  0  0  0  0  0  0  0  0  0  0  0
   14.7001   65.4054   26.6980 H   0  0  0  0  0  0  0  0  0  0  0  0
   20.8185   58.9182   27.7147 H   0  0  0  0  0  0  0  0  0  0  0  0
   16.3218   67.6367   29.8150 H   0  0  0  0  0  0  0  0  0  0  0  0
  1  2  2  0  0  0  0
  2  3  2  0  0  0  0
  2  4  1  0  0  0  0
  2 14  1  0  0  0  0
  4  5  2  0  0  0  0
  4 13  1  0  0  0  0
  5  6  1  0  0  0  0
  5 41  1  0  0  0  0
  6  7  2  0  0  0  0
  6 42  1  0  0  0  0
  7  8  1  0  0  0  0
  7 12  1  0  0  0  0
  8  9  2  0  0  0  0
  8 43  1  0  0  0  0
  9 10  1  0  0  0  0
  9 44  1  0  0  0  0
 10 11  2  0  0  0  0
 10 45  1  0  0  0  0
 11 12  1  0  0  0  0
 11 46  1  0  0  0  0
 12 13  2  0  0  0  0
 13 47  1  0  0  0  0
 14 15  1  0  0  0  0
 14 48  1  0  0  0  0
 15 16  2  0  0  0  0
 15 27  1  0  0  0  0
 16 17  1  0  0  0  0
 16 30  1  0  0  0  0
 17 18  1  0  0  0  0
 18 19  2  0  0  0  0
 18 26  1  0  0  0  0
 19 20  1  0  0  0  0
 19 49  1  0  0  0  0
 20 21  2  0  0  0  0
 20 50  1  0  0  0  0
 21 22  1  0  0  0  0
 21 25  1  0  0  0  0
 22 23  2  0  0  0  0
 22 24  1  0  0  0  0
 23 51  1  0  0  0  0
 23 65  1  0  0  0  0
 24 52  1  0  0  0  0
 24 53  1  0  0  0  0
 25 26  2  0  0  0  0
 25 54  1  0  0  0  0
 26 55  1  0  0  0  0
 27 28  2  0  0  0  0
 27 56  1  0  0  0  0
 28 29  1  0  0  0  0
 28 57  1  0  0  0  0
 29 30  2  0  0  0  0
 29 31  1  0  0  0  0
 31 32  1  0  0  0  0
 32 33  2  0  0  0  0
 32 40  1  0  0  0  0
 33 34  1  0  0  0  0
 33 58  1  0  0  0  0
 34 35  2  0  0  0  0
 34 59  1  0  0  0  0
 35 36  1  0  0  0  0
 35 39  1  0  0  0  0
 36 37  2  0  0  0  0
 36 38  1  0  0  0  0
 37 60  1  0  0  0  0
 37 66  1  0  0  0  0
 38 61  1  0  0  0  0
 38 62  1  0  0  0  0
 39 40  2  0  0  0  0
 39 63  1  0  0  0  0
 40 64  1  0  0  0  0
M  END
$$$$
