N53
 OpenBabel04111917443D

 79 84  0  0  1  0  0  0  0  0999 V2000
   43.2634   13.1153   16.5631 C   0  0  0  0  0  0  0  0  0  0  0  0
   42.4266   12.6977   15.5150 C   0  0  0  0  0  0  0  0  0  0  0  0
   42.6501   11.4909   14.8372 C   0  0  0  0  0  0  0  0  0  0  0  0
   43.7306   10.6865   15.1956 C   0  0  0  0  0  0  0  0  0  0  0  0
   44.5696   11.0981   16.2347 C   0  0  0  0  0  0  0  0  0  0  0  0
   44.3449   12.3095   16.9151 C   0  0  0  0  0  0  0  0  0  0  0  0
   43.6164   16.6892   19.8578 C   0  0  0  0  0  0  0  0  0  0  0  0
   43.5710   16.1196   18.5620 C   0  0  0  0  0  0  0  0  0  0  0  0
   43.2049   14.7749   18.3444 C   0  0  0  0  0  0  0  0  0  0  0  0
   42.8640   13.9949   19.4444 C   0  0  0  0  0  0  0  0  0  0  0  0
   42.9241   14.5439   20.7380 C   0  0  0  0  0  0  0  0  0  0  0  0
   43.3038   15.8783   20.9474 C   0  0  0  0  0  0  0  0  0  0  0  0
   47.8774   24.8734   15.1680 C   0  0  0  0  0  0  0  0  0  0  0  0
   47.3476   25.9625   14.4581 C   0  0  0  0  0  0  0  0  0  0  0  0
   48.1814   26.8069   13.7196 C   0  0  0  0  0  0  0  0  0  0  0  0
   49.5556   26.5894   13.6986 C   0  0  0  0  0  0  0  0  0  0  0  0
   50.0982   25.5212   14.4058 C   0  0  0  0  0  0  0  0  0  0  0  0
   49.2659   24.6701   15.1330 C   0  0  0  0  0  0  0  0  0  0  0  0
   44.7773   23.2590   16.9494 N   0  0  0  0  0  0  0  0  0  0  0  0
   45.5395   23.9181   15.8408 C   0  0  2  0  0  0  0  0  0  0  0  0
   45.2462   23.2200   14.4825 C   0  0  0  0  0  0  0  0  0  0  0  0
   43.7400   23.2763   14.2168 N   0  3  2  0  0  0  0  0  0  0  0  0
   42.9930   22.5614   15.3327 C   0  0  0  0  0  0  0  0  0  0  0  0
   43.3350   23.2181   16.6740 C   0  0  0  0  0  0  0  0  0  0  0  0
   44.6936   22.2064   21.4153 C   0  0  0  0  0  0  0  0  0  0  0  0
   44.6636   21.4592   19.2080 C   0  0  0  0  0  0  0  0  0  0  0  0
   44.8713   22.9451   19.2910 N   0  0  0  0  0  0  0  0  0  0  0  0
   45.0480   23.4552   20.7069 C   0  0  0  0  0  0  0  0  0  0  0  0
   44.4122   21.8423   22.6837 N   0  3  0  0  0  0  0  0  0  0  0  0
   44.0131   20.5363   22.7389 N   0  0  0  0  0  0  0  0  0  0  0  0
   44.0949   20.0876   21.4762 C   0  0  0  0  0  0  0  0  0  0  0  0
   46.4942   23.8702   21.0074 C   0  0  0  0  0  0  0  0  0  0  0  0
   44.0606   24.5718   21.0480 C   0  0  0  0  0  0  0  0  0  0  0  0
   45.0254   23.7911   18.2217 C   0  0  0  0  0  0  0  0  0  0  0  0
   45.3382   24.9736   18.3348 O   0  0  0  0  0  0  0  0  0  0  0  0
   43.3558   22.7824   12.8561 C   0  0  0  0  0  0  0  0  0  0  0  0
   47.0646   23.9884   16.0923 C   0  0  0  0  0  0  0  0  0  0  0  0
   43.7676   18.7735   21.1971 N   0  0  0  0  0  0  0  0  0  0  0  0
   43.9982   18.1422   19.9880 C   0  0  0  0  0  0  0  0  0  0  0  0
   44.4915   18.6862   19.0030 O   0  0  0  0  0  0  0  0  0  0  0  0
   43.0523   14.4020   17.0245 O   0  0  0  0  0  0  0  0  0  0  0  0
   44.4898   21.1230   20.6235 C   0  0  0  0  0  0  0  0  0  0  0  0
   41.6004   13.3281   15.1967 H   0  0  0  0  0  0  0  0  0  0  0  0
   42.0036   11.1870   14.0174 H   0  0  0  0  0  0  0  0  0  0  0  0
   43.9237    9.7645   14.6656 H   0  0  0  0  0  0  0  0  0  0  0  0
   45.4277   10.4773   16.4945 H   0  0  0  0  0  0  0  0  0  0  0  0
   45.0508   12.6192   17.6790 H   0  0  0  0  0  0  0  0  0  0  0  0
   43.8079   16.7354   17.6959 H   0  0  0  0  0  0  0  0  0  0  0  0
   42.5155   12.9736   19.3212 H   0  0  0  0  0  0  0  0  0  0  0  0
   42.6502   13.9311   21.5965 H   0  0  0  0  0  0  0  0  0  0  0  0
   43.3450   16.2433   21.9702 H   0  0  0  0  0  0  0  0  0  0  0  0
   46.2928   26.2152   14.4874 H   0  0  0  0  0  0  0  0  0  0  0  0
   47.7642   27.6583   13.1861 H   0  0  0  0  0  0  0  0  0  0  0  0
   50.2075   27.2663   13.1518 H   0  0  0  0  0  0  0  0  0  0  0  0
   51.1743   25.3650   14.4140 H   0  0  0  0  0  0  0  0  0  0  0  0
   49.7190   23.8651   15.7098 H   0  0  0  0  0  0  0  0  0  0  0  0
   45.1459   24.9414   15.7905 H   0  0  0  0  0  0  0  0  0  0  0  0
   45.5299   22.1606   14.4899 H   0  0  0  0  0  0  0  0  0  0  0  0
   45.7303   23.7216   13.6395 H   0  0  0  0  0  0  0  0  0  0  0  0
   43.2977   21.5098   15.3071 H   0  0  0  0  0  0  0  0  0  0  0  0
   41.9237   22.6506   15.1193 H   0  0  0  0  0  0  0  0  0  0  0  0
   42.9781   24.2581   16.6715 H   0  0  0  0  0  0  0  0  0  0  0  0
   42.7985   22.7187   17.4854 H   0  0  0  0  0  0  0  0  0  0  0  0
   45.5484   21.0057   18.7511 H   0  0  0  0  0  0  0  0  0  0  0  0
   43.7662   21.2401   18.6291 H   0  0  0  0  0  0  0  0  0  0  0  0
   44.4241   22.3932   23.5352 H   0  0  0  0  0  0  0  0  0  0  0  0
   46.5927   24.2151   22.0442 H   0  0  0  0  0  0  0  0  0  0  0  0
   46.8303   24.6876   20.3607 H   0  0  0  0  0  0  0  0  0  0  0  0
   47.1980   23.0398   20.8746 H   0  0  0  0  0  0  0  0  0  0  0  0
   44.1784   24.8909   22.0899 H   0  0  0  0  0  0  0  0  0  0  0  0
   43.0239   24.2406   20.9173 H   0  0  0  0  0  0  0  0  0  0  0  0
   44.2033   25.4564   20.4212 H   0  0  0  0  0  0  0  0  0  0  0  0
   43.9108   23.3621   12.1138 H   0  0  0  0  0  0  0  0  0  0  0  0
   42.2832   22.9569   12.7295 H   0  0  0  0  0  0  0  0  0  0  0  0
   43.5911   21.7183   12.7852 H   0  0  0  0  0  0  0  0  0  0  0  0
   47.2661   24.3790   17.0956 H   0  0  0  0  0  0  0  0  0  0  0  0
   47.4712   22.9689   16.0791 H   0  0  0  0  0  0  0  0  0  0  0  0
   43.3850   18.2967   22.0023 H   0  0  0  0  0  0  0  0  0  0  0  0
   43.4718   24.2693   14.2513 H   0  0  0  0  0  0  0  0  0  0  0  0
  1  2  2  0  0  0  0
  1  6  1  0  0  0  0
  1 41  1  0  0  0  0
  2  3  1  0  0  0  0
  2 43  1  0  0  0  0
  3  4  2  0  0  0  0
  3 44  1  0  0  0  0
  4  5  1  0  0  0  0
  4 45  1  0  0  0  0
  5  6  2  0  0  0  0
  5 46  1  0  0  0  0
  6 47  1  0  0  0  0
  7  8  2  0  0  0  0
  7 12  1  0  0  0  0
  7 39  1  0  0  0  0
  8  9  1  0  0  0  0
  8 48  1  0  0  0  0
  9 10  2  0  0  0  0
  9 41  1  0  0  0  0
 10 11  1  0  0  0  0
 10 49  1  0  0  0  0
 11 12  2  0  0  0  0
 11 50  1  0  0  0  0
 12 51  1  0  0  0  0
 13 14  2  0  0  0  0
 13 18  1  0  0  0  0
 13 37  1  0  0  0  0
 14 15  1  0  0  0  0
 14 52  1  0  0  0  0
 15 16  2  0  0  0  0
 15 53  1  0  0  0  0
 16 17  1  0  0  0  0
 16 54  1  0  0  0  0
 17 18  2  0  0  0  0
 17 55  1  0  0  0  0
 18 56  1  0  0  0  0
 19 20  1  0  0  0  0
 19 24  1  0  0  0  0
 19 34  1  0  0  0  0
 20 21  1  0  0  0  0
 20 37  1  0  0  0  0
 20 57  1  6  0  0  0
 21 22  1  0  0  0  0
 21 58  1  0  0  0  0
 21 59  1  0  0  0  0
 22 23  1  0  0  0  0
 22 36  1  0  0  0  0
 22 79  1  1  0  0  0
 23 24  1  0  0  0  0
 23 60  1  0  0  0  0
 23 61  1  0  0  0  0
 24 62  1  0  0  0  0
 24 63  1  0  0  0  0
 25 28  1  0  0  0  0
 25 29  2  0  0  0  0
 25 42  1  0  0  0  0
 26 27  1  0  0  0  0
 26 42  1  0  0  0  0
 26 64  1  0  0  0  0
 26 65  1  0  0  0  0
 27 28  1  0  0  0  0
 27 34  1  0  0  0  0
 28 32  1  0  0  0  0
 28 33  1  0  0  0  0
 29 30  1  0  0  0  0
 29 66  1  0  0  0  0
 30 31  1  0  0  0  0
 31 38  1  0  0  0  0
 31 42  2  0  0  0  0
 32 67  1  0  0  0  0
 32 68  1  0  0  0  0
 32 69  1  0  0  0  0
 33 70  1  0  0  0  0
 33 71  1  0  0  0  0
 33 72  1  0  0  0  0
 34 35  2  0  0  0  0
 36 73  1  0  0  0  0
 36 74  1  0  0  0  0
 36 75  1  0  0  0  0
 37 76  1  0  0  0  0
 37 77  1  0  0  0  0
 38 39  1  0  0  0  0
 38 78  1  0  0  0  0
 39 40  2  0  0  0  0
M  CHG  2  22   1  29   1
M  END
$$$$
