N6P
 OpenBabel04111920583D

 49 53  0  0  1  0  0  0  0  0999 V2000
   13.2980   77.0071   -5.0851 C   0  0  0  0  0  0  0  0  0  0  0  0
   14.1972   78.0579   -5.3382 C   0  0  0  0  0  0  0  0  0  0  0  0
   15.3025   78.2781   -4.4827 C   0  0  0  0  0  0  0  0  0  0  0  0
   16.1832   79.3298   -4.7356 C   0  0  0  0  0  0  0  0  0  0  0  0
   15.9794   80.1756   -5.8223 C   0  0  0  0  0  0  0  0  0  0  0  0
   14.8846   79.9629   -6.6682 C   0  0  0  0  0  0  0  0  0  0  0  0
   14.0047   78.9132   -6.4271 C   0  0  0  0  0  0  0  0  0  0  0  0
   12.8994   78.6932   -7.2646 C   0  0  0  0  0  0  0  0  0  0  0  0
   12.0169   77.6499   -7.0084 C   0  0  0  0  0  0  0  0  0  0  0  0
   12.1830   76.7753   -5.9162 C   0  0  0  0  0  0  0  0  0  0  0  0
   11.2395   75.6854   -5.6098 C   0  0  0  0  0  0  0  0  0  0  0  0
   11.4867   74.8985   -4.5182 N   0  0  0  0  0  0  0  0  0  0  0  0
   10.5881   73.9415   -4.2037 C   0  0  0  0  0  0  0  0  0  0  0  0
    9.4478   73.6196   -4.8553 N   0  0  0  0  0  0  0  0  0  0  0  0
    9.2633   74.4031   -5.9411 C   0  0  0  0  0  0  0  0  0  0  0  0
   10.0812   75.4362   -6.3626 C   0  0  0  0  0  0  0  0  0  0  0  0
    9.5581   76.0299   -7.4744 N   0  0  0  0  0  0  0  0  0  0  0  0
    8.4362   75.4077   -7.7344 C   0  0  0  0  0  0  0  0  0  0  0  0
    8.2134   74.4060   -6.8393 N   0  3  0  0  0  0  0  0  0  0  0  0
    6.9962   73.6253   -6.7260 C   0  0  2  0  0  0  0  0  0  0  0  0
    6.0586   73.9363   -7.7731 O   0  0  0  0  0  0  0  0  0  0  0  0
    6.3124   73.9218   -5.4040 C   0  0  2  0  0  0  0  0  0  0  0  0
    6.0290   72.7169   -4.6741 O   0  0  0  0  0  0  0  0  0  0  0  0
    5.0844   74.7499   -5.7618 C   0  0  2  0  0  0  0  0  0  0  0  0
    3.9066   74.0998   -5.2710 O   0  0  0  0  0  0  0  0  0  0  0  0
    5.0474   74.8576   -7.2883 C   0  0  1  0  0  0  0  0  0  0  0  0
    5.2224   76.3130   -7.7832 C   0  0  0  0  0  0  0  0  0  0  0  0
    5.2415   76.3012   -9.1966 O   0  0  0  0  0  0  0  0  0  0  0  0
    5.6831   77.6630   -9.9927 P   0  0  0  0  0  0  0  0  0  0  0  0
    7.0891   77.9413   -9.4905 O   0  0  0  0  0  0  0  0  0  0  0  0
    5.6032   77.2419  -11.4543 O   0  0  0  0  0  0  0  0  0  0  0  0
    4.6491   78.6925   -9.5642 O   0  0  0  0  0  0  0  0  0  0  0  0
   13.4511   76.3656   -4.2212 H   0  0  0  0  0  0  0  0  0  0  0  0
   15.4648   77.6289   -3.6280 H   0  0  0  0  0  0  0  0  0  0  0  0
   17.0274   79.4882   -4.0724 H   0  0  0  0  0  0  0  0  0  0  0  0
   16.6585   80.9945   -6.0201 H   0  0  0  0  0  0  0  0  0  0  0  0
   14.7191   80.6321   -7.5090 H   0  0  0  0  0  0  0  0  0  0  0  0
   12.7034   79.3459   -8.1145 H   0  0  0  0  0  0  0  0  0  0  0  0
   11.1711   77.5475   -7.6894 H   0  0  0  0  0  0  0  0  0  0  0  0
   10.8208   73.3636   -3.3175 H   0  0  0  0  0  0  0  0  0  0  0  0
    7.7392   75.6613   -8.5315 H   0  0  0  0  0  0  0  0  0  0  0  0
    7.2828   72.5704   -6.8347 H   0  0  0  0  0  0  0  0  0  0  0  0
    6.9670   74.5116   -4.7580 H   0  0  0  0  0  0  0  0  0  0  0  0
    5.4377   72.1687   -5.2121 H   0  0  0  0  0  0  0  0  0  0  0  0
    5.1501   75.7376   -5.2905 H   0  0  0  0  0  0  0  0  0  0  0  0
    3.8119   73.2840   -5.7926 H   0  0  0  0  0  0  0  0  0  0  0  0
    4.0915   74.4960   -7.6919 H   0  0  0  0  0  0  0  0  0  0  0  0
    6.1368   76.7495   -7.3732 H   0  0  0  0  0  0  0  0  0  0  0  0
    4.3795   76.9220   -7.4341 H   0  0  0  0  0  0  0  0  0  0  0  0
  1  2  2  0  0  0  0
  1 10  1  0  0  0  0
  1 33  1  0  0  0  0
  2  3  1  0  0  0  0
  2  7  1  0  0  0  0
  3  4  2  0  0  0  0
  3 34  1  0  0  0  0
  4  5  1  0  0  0  0
  4 35  1  0  0  0  0
  5  6  2  0  0  0  0
  5 36  1  0  0  0  0
  6  7  1  0  0  0  0
  6 37  1  0  0  0  0
  7  8  2  0  0  0  0
  8  9  1  0  0  0  0
  8 38  1  0  0  0  0
  9 10  2  0  0  0  0
  9 39  1  0  0  0  0
 10 11  1  0  0  0  0
 11 12  2  0  0  0  0
 11 16  1  0  0  0  0
 12 13  1  0  0  0  0
 13 14  2  0  0  0  0
 13 40  1  0  0  0  0
 14 15  1  0  0  0  0
 15 16  2  0  0  0  0
 15 19  1  0  0  0  0
 16 17  1  0  0  0  0
 17 18  1  0  0  0  0
 18 19  2  0  0  0  0
 18 41  1  0  0  0  0
 19 20  1  0  0  0  0
 20 21  1  0  0  0  0
 20 22  1  0  0  0  0
 20 42  1  6  0  0  0
 21 26  1  0  0  0  0
 22 23  1  0  0  0  0
 22 24  1  0  0  0  0
 22 43  1  1  0  0  0
 23 44  1  0  0  0  0
 24 25  1  0  0  0  0
 24 26  1  0  0  0  0
 24 45  1  1  0  0  0
 25 46  1  0  0  0  0
 26 27  1  0  0  0  0
 26 47  1  6  0  0  0
 27 28  1  0  0  0  0
 27 48  1  0  0  0  0
 27 49  1  0  0  0  0
 28 29  1  0  0  0  0
 29 30  2  0  0  0  0
 29 31  1  0  0  0  0
 29 32  1  0  0  0  0
M  CHG  1  19   1
M  END
$$$$
