N8P
 OpenBabel04111917503D

 21 21  0  0  1  0  0  0  0  0999 V2000
  -93.5890    9.5306  -19.7830 C   0  0  0  0  0  0  0  0  0  0  0  0
  -92.4102    9.7187  -20.0917 O   0  0  0  0  0  0  0  0  0  0  0  0
  -94.4987   10.7109  -19.5070 C   0  0  0  0  0  0  0  0  0  0  0  0
  -94.1088    8.2680  -19.6057 N   0  0  0  0  0  0  0  0  0  0  0  0
  -95.5074    7.9548  -19.2527 C   0  0  2  0  0  0  0  0  0  0  0  0
  -95.5049    6.4504  -19.0071 C   0  0  0  0  0  0  0  0  0  0  0  0
  -94.3668    5.9305  -19.8741 C   0  0  0  0  0  0  0  0  0  0  0  0
  -93.3526    7.0659  -19.8927 C   0  0  0  0  0  0  0  0  0  0  0  0
  -96.6001    8.3032  -20.3056 C   0  0  0  0  0  0  0  0  0  0  0  0
  -96.2010    8.6128  -21.4612 O   0  0  0  0  0  0  0  0  0  0  0  0
  -97.7855    8.2659  -19.8522 O   0  0  0  0  0  0  0  0  0  0  0  0
  -95.5122   10.4414  -19.2167 H   0  0  0  0  0  0  0  0  0  0  0  0
  -94.5649   11.3333  -20.4030 H   0  0  0  0  0  0  0  0  0  0  0  0
  -94.0751   11.2952  -18.6837 H   0  0  0  0  0  0  0  0  0  0  0  0
  -95.7381    8.4815  -18.3189 H   0  0  0  0  0  0  0  0  0  0  0  0
  -96.4540    5.9638  -19.2523 H   0  0  0  0  0  0  0  0  0  0  0  0
  -95.2835    6.2462  -17.9534 H   0  0  0  0  0  0  0  0  0  0  0  0
  -94.7330    5.7276  -20.8876 H   0  0  0  0  0  0  0  0  0  0  0  0
  -93.9417    5.0026  -19.4791 H   0  0  0  0  0  0  0  0  0  0  0  0
  -92.6042    6.9413  -19.1030 H   0  0  0  0  0  0  0  0  0  0  0  0
  -92.8362    7.1416  -20.8555 H   0  0  0  0  0  0  0  0  0  0  0  0
  1  2  2  0  0  0  0
  1  3  1  0  0  0  0
  1  4  1  0  0  0  0
  3 12  1  0  0  0  0
  3 13  1  0  0  0  0
  3 14  1  0  0  0  0
  4  5  1  0  0  0  0
  4  8  1  0  0  0  0
  5  6  1  0  0  0  0
  5  9  1  0  0  0  0
  5 15  1  1  0  0  0
  6  7  1  0  0  0  0
  6 16  1  0  0  0  0
  6 17  1  0  0  0  0
  7  8  1  0  0  0  0
  7 18  1  0  0  0  0
  7 19  1  0  0  0  0
  8 20  1  0  0  0  0
  8 21  1  0  0  0  0
  9 10  2  0  0  0  0
  9 11  1  0  0  0  0
M  END
$$$$
