NAR
 OpenBabel04111918323D

 31 33  0  0  1  0  0  0  0  0999 V2000
   20.7099   42.0409   37.4984 C   0  0  0  0  0  0  0  0  0  0  0  0
   20.8490   42.0403   36.1307 C   0  0  0  0  0  0  0  0  0  0  0  0
   21.9734   42.6236   35.5454 C   0  0  0  0  0  0  0  0  0  0  0  0
   23.0383   43.2172   36.2815 C   0  0  0  0  0  0  0  0  0  0  0  0
   22.8786   43.1869   37.6925 C   0  0  0  0  0  0  0  0  0  0  0  0
   21.7293   42.5941   38.2583 C   0  0  0  0  0  0  0  0  0  0  0  0
   23.8760   43.7386   38.7028 C   0  0  0  0  0  0  0  0  0  0  0  0
   23.7316   43.2737   40.1400 C   0  0  0  0  0  0  0  0  0  0  0  0
   22.7666   42.1080   40.2256 C   0  0  2  0  0  0  0  0  0  0  0  0
   21.5364   42.4865   39.6068 O   0  0  0  0  0  0  0  0  0  0  0  0
   24.7493   44.5743   38.4630 O   0  0  0  0  0  0  0  0  0  0  0  0
   22.3146   41.6733   41.6058 C   0  0  0  0  0  0  0  0  0  0  0  0
   21.8411   42.6095   42.5392 C   0  0  0  0  0  0  0  0  0  0  0  0
   21.2149   42.1892   43.7114 C   0  0  0  0  0  0  0  0  0  0  0  0
   21.0368   40.8345   43.9454 C   0  0  0  0  0  0  0  0  0  0  0  0
   21.5136   39.8828   43.0513 C   0  0  0  0  0  0  0  0  0  0  0  0
   22.1519   40.3031   41.8819 C   0  0  0  0  0  0  0  0  0  0  0  0
   20.3316   40.4700   45.0541 O   0  0  0  0  0  0  0  0  0  0  0  0
   19.9106   41.4484   35.3355 O   0  0  0  0  0  0  0  0  0  0  0  0
   24.0446   43.6958   35.6570 O   0  0  0  0  0  0  0  0  0  0  0  0
   19.8575   41.5913   37.9936 H   0  0  0  0  0  0  0  0  0  0  0  0
   22.0492   42.6109   34.4574 H   0  0  0  0  0  0  0  0  0  0  0  0
   23.3816   44.1426   40.7078 H   0  0  0  0  0  0  0  0  0  0  0  0
   24.7145   42.9781   40.5243 H   0  0  0  0  0  0  0  0  0  0  0  0
   23.1978   41.2352   39.7104 H   0  0  0  0  0  0  0  0  0  0  0  0
   21.8831   43.6740   42.3223 H   0  0  0  0  0  0  0  0  0  0  0  0
   20.8126   42.9216   44.4045 H   0  0  0  0  0  0  0  0  0  0  0  0
   21.3777   38.8214   43.2340 H   0  0  0  0  0  0  0  0  0  0  0  0
   22.4704   39.5578   41.1551 H   0  0  0  0  0  0  0  0  0  0  0  0
   19.8198   39.6794   44.8156 H   0  0  0  0  0  0  0  0  0  0  0  0
   19.2626   41.0219   35.9165 H   0  0  0  0  0  0  0  0  0  0  0  0
  1  2  2  0  0  0  0
  1  6  1  0  0  0  0
  1 21  1  0  0  0  0
  2  3  1  0  0  0  0
  2 19  1  0  0  0  0
  3  4  2  0  0  0  0
  3 22  1  0  0  0  0
  4  5  1  0  0  0  0
  4 20  1  0  0  0  0
  5  6  2  0  0  0  0
  5  7  1  0  0  0  0
  6 10  1  0  0  0  0
  7  8  1  0  0  0  0
  7 11  2  0  0  0  0
  8  9  1  0  0  0  0
  8 23  1  0  0  0  0
  8 24  1  0  0  0  0
  9 10  1  0  0  0  0
  9 12  1  0  0  0  0
  9 25  1  6  0  0  0
 12 13  2  0  0  0  0
 12 17  1  0  0  0  0
 13 14  1  0  0  0  0
 13 26  1  0  0  0  0
 14 15  2  0  0  0  0
 14 27  1  0  0  0  0
 15 16  1  0  0  0  0
 15 18  1  0  0  0  0
 16 17  2  0  0  0  0
 16 28  1  0  0  0  0
 17 29  1  0  0  0  0
 18 30  1  0  0  0  0
 19 31  1  0  0  0  0
M  END
$$$$
