NNH
 OpenBabel04111921133D

 25 24  0  0  1  0  0  0  0  0999 V2000
  -44.3743   17.4403   38.8427 N   0  3  0  0  0  0  0  0  0  0  0  0
  -43.5468   18.2464   37.8978 C   0  0  2  0  0  0  0  0  0  0  0  0
  -42.3198   17.5154   37.2324 C   0  0  0  0  0  0  0  0  0  0  0  0
  -41.4996   18.2925   36.7613 O   0  0  0  0  0  0  0  0  0  0  0  0
  -42.9886   19.5015   38.5806 C   0  0  0  0  0  0  0  0  0  0  0  0
  -42.1870   19.2080   39.8428 C   0  0  0  0  0  0  0  0  0  0  0  0
  -41.5959   20.4673   40.3191 N   0  0  0  0  0  0  0  0  0  0  0  0
  -41.4072   20.8062   41.6228 C   0  0  0  0  0  0  0  0  0  0  0  0
  -41.7687   19.9370   42.6532 N   0  3  0  0  0  0  0  0  0  0  0  0
  -40.8705   22.0315   41.8813 N   0  0  0  0  0  0  0  0  0  0  0  0
  -41.5888   20.2480   44.0208 O   0  0  0  0  0  0  0  0  0  0  0  0
  -42.3058   16.2578   37.3543 O   0  0  0  0  0  0  0  0  0  0  0  0
  -45.1545   17.9698   39.2223 H   0  0  0  0  0  0  0  0  0  0  0  0
  -44.7252   16.6290   38.3077 H   0  0  0  0  0  0  0  0  0  0  0  0
  -44.2524   18.5744   37.1272 H   0  0  0  0  0  0  0  0  0  0  0  0
  -43.7840   20.2190   38.8231 H   0  0  0  0  0  0  0  0  0  0  0  0
  -42.3220   20.0146   37.8688 H   0  0  0  0  0  0  0  0  0  0  0  0
  -41.3892   18.4849   39.6381 H   0  0  0  0  0  0  0  0  0  0  0  0
  -42.8536   18.8004   40.6091 H   0  0  0  0  0  0  0  0  0  0  0  0
  -41.3207   21.1151   39.5824 H   0  0  0  0  0  0  0  0  0  0  0  0
  -42.1610   19.0268   42.4267 H   0  0  0  0  0  0  0  0  0  0  0  0
  -40.6957   22.3412   42.8358 H   0  0  0  0  0  0  0  0  0  0  0  0
  -41.9125   19.4649   44.5238 H   0  0  0  0  0  0  0  0  0  0  0  0
  -43.7732   17.0564   39.5781 H   0  0  0  0  0  0  0  0  0  0  0  0
  -40.6114   22.6633   41.1248 H   0  0  0  0  0  0  0  0  0  0  0  0
  1  2  1  0  0  0  0
  1 13  1  0  0  0  0
  1 14  1  0  0  0  0
  1 24  1  0  0  0  0
  2  3  1  0  0  0  0
  2  5  1  0  0  0  0
  2 15  1  6  0  0  0
  3  4  2  0  0  0  0
  3 12  1  0  0  0  0
  5  6  1  0  0  0  0
  5 16  1  0  0  0  0
  5 17  1  0  0  0  0
  6  7  1  0  0  0  0
  6 18  1  0  0  0  0
  6 19  1  0  0  0  0
  7  8  1  0  0  0  0
  7 20  1  0  0  0  0
  8  9  1  0  0  0  0
  8 10  2  0  0  0  0
  9 11  1  0  0  0  0
  9 21  1  0  0  0  0
 10 22  1  0  0  0  0
 10 25  1  0  0  0  0
 11 23  1  0  0  0  0
M  CHG  2   1   1   9   1
M  END
$$$$
