NOJ
 OpenBabel04111919293D

 25 25  0  0  1  0  0  0  0  0999 V2000
  -20.9052  -20.3874  -23.4371 C   0  0  0  0  0  0  0  0  0  0  0  0
  -22.0471  -19.7913  -24.2542 C   0  0  2  0  0  0  0  0  0  0  0  0
  -22.8298  -20.8502  -24.8275 O   0  0  0  0  0  0  0  0  0  0  0  0
  -21.5654  -18.8559  -25.3857 C   0  0  1  0  0  0  0  0  0  0  0  0
  -22.6892  -18.1722  -25.9373 O   0  0  0  0  0  0  0  0  0  0  0  0
  -20.5602  -17.8287  -24.8493 C   0  0  2  0  0  0  0  0  0  0  0  0
  -20.1097  -16.9506  -25.8846 O   0  0  0  0  0  0  0  0  0  0  0  0
  -19.3690  -18.5857  -24.2533 C   0  0  2  0  0  0  0  0  0  0  0  0
  -19.8885  -19.3754  -23.0802 N   0  3  0  0  0  0  0  0  0  0  0  0
  -18.3245  -17.6116  -23.6975 C   0  0  0  0  0  0  0  0  0  0  0  0
  -18.9491  -16.8496  -22.6657 O   0  0  0  0  0  0  0  0  0  0  0  0
  -20.3849  -21.1680  -23.9970 H   0  0  0  0  0  0  0  0  0  0  0  0
  -21.2735  -20.8258  -22.5002 H   0  0  0  0  0  0  0  0  0  0  0  0
  -22.7128  -19.2190  -23.5944 H   0  0  0  0  0  0  0  0  0  0  0  0
  -22.2802  -21.3664  -25.4495 H   0  0  0  0  0  0  0  0  0  0  0  0
  -21.1112  -19.4343  -26.1947 H   0  0  0  0  0  0  0  0  0  0  0  0
  -23.3349  -18.8714  -26.2249 H   0  0  0  0  0  0  0  0  0  0  0  0
  -21.0795  -17.2293  -24.0887 H   0  0  0  0  0  0  0  0  0  0  0  0
  -19.5768  -16.2281  -25.5174 H   0  0  0  0  0  0  0  0  0  0  0  0
  -18.9043  -19.2676  -24.9672 H   0  0  0  0  0  0  0  0  0  0  0  0
  -20.2757  -18.6893  -22.4024 H   0  0  0  0  0  0  0  0  0  0  0  0
  -17.9117  -16.9563  -24.4785 H   0  0  0  0  0  0  0  0  0  0  0  0
  -17.4906  -18.1630  -23.2616 H   0  0  0  0  0  0  0  0  0  0  0  0
  -19.5881  -16.2214  -23.0386 H   0  0  0  0  0  0  0  0  0  0  0  0
  -19.1041  -19.8014  -22.5680 H   0  0  0  0  0  0  0  0  0  0  0  0
  1  2  1  0  0  0  0
  1  9  1  0  0  0  0
  1 12  1  0  0  0  0
  1 13  1  0  0  0  0
  2  3  1  0  0  0  0
  2  4  1  0  0  0  0
  2 14  1  1  0  0  0
  3 15  1  0  0  0  0
  4  5  1  0  0  0  0
  4  6  1  0  0  0  0
  4 16  1  6  0  0  0
  5 17  1  0  0  0  0
  6  7  1  0  0  0  0
  6  8  1  0  0  0  0
  6 18  1  1  0  0  0
  7 19  1  0  0  0  0
  8  9  1  0  0  0  0
  8 10  1  0  0  0  0
  8 20  1  6  0  0  0
  9 21  1  0  0  0  0
  9 25  1  0  0  0  0
 10 11  1  0  0  0  0
 10 22  1  0  0  0  0
 10 23  1  0  0  0  0
 11 24  1  0  0  0  0
M  CHG  1   9   1
M  END
$$$$
