NT4
 OpenBabel04111920463D

 69 72  0  0  1  0  0  0  0  0999 V2000
   19.9637    7.5631   26.9131 N   0  0  0  0  0  0  0  0  0  0  0  0
   13.0689   13.7971   25.8256 N   0  0  0  0  0  0  0  0  0  0  0  0
   16.6280    7.6929   23.8079 C   0  0  0  0  0  0  0  0  0  0  0  0
   17.1751    7.7957   25.0851 C   0  0  0  0  0  0  0  0  0  0  0  0
   18.1397    6.8713   25.5102 C   0  0  0  0  0  0  0  0  0  0  0  0
   18.6859    7.0585   26.8883 C   0  0  0  0  0  0  0  0  0  0  0  0
   20.8140    7.7874   28.0848 C   0  0  1  0  0  0  0  0  0  0  0  0
   15.0910    9.4708   23.9828 C   0  0  0  0  0  0  0  0  0  0  0  0
   21.5714    2.5925   21.4050 C   0  0  0  0  0  0  0  0  0  0  0  0
   20.6168    4.6103   22.4224 C   0  0  0  0  0  0  0  0  0  0  0  0
   13.7326   10.1398   25.8397 C   0  0  0  0  0  0  0  0  0  0  0  0
   15.1530   10.7867   23.5384 C   0  0  0  0  0  0  0  0  0  0  0  0
   21.9822    8.6625   27.5898 C   0  0  0  0  0  0  0  0  0  0  0  0
   22.9613    9.0417   28.6883 C   0  0  0  0  0  0  0  0  0  0  0  0
   21.1622    8.8898   30.3740 C   0  0  0  0  0  0  0  0  0  0  0  0
   13.0436   12.5235   26.1853 C   0  0  0  0  0  0  0  0  0  0  0  0
   17.9880    6.8714   27.8674 O   0  0  0  0  0  0  0  0  0  0  0  0
   22.1716    9.8303   29.7212 C   0  0  1  0  0  0  0  0  0  0  0  0
   23.0815   10.4352   30.7109 N   0  3  0  0  0  0  0  0  0  0  0  0
   20.1328    8.4261   29.3223 C   0  0  0  0  0  0  0  0  0  0  0  0
   15.7000    8.5213   23.2239 O   0  0  0  0  0  0  0  0  0  0  0  0
   14.3619    9.1397   25.1145 C   0  0  0  0  0  0  0  0  0  0  0  0
   13.7895   11.4940   25.4396 C   0  0  0  0  0  0  0  0  0  0  0  0
   12.3068   12.2020   27.2370 N   0  0  0  0  0  0  0  0  0  0  0  0
   14.5238   11.7908   24.2695 C   0  0  0  0  0  0  0  0  0  0  0  0
   17.0468    6.6781   22.9654 C   0  0  0  0  0  0  0  0  0  0  0  0
   18.0141    5.7615   23.3667 C   0  0  0  0  0  0  0  0  0  0  0  0
   18.5709    5.8409   24.6491 C   0  0  0  0  0  0  0  0  0  0  0  0
   18.1656    4.7750   22.4314 O   0  0  0  0  0  0  0  0  0  0  0  0
   19.3382    4.1422   22.1541 C   0  0  0  0  0  0  0  0  0  0  0  0
   19.1724    2.9393   21.4592 C   0  0  0  0  0  0  0  0  0  0  0  0
   20.2758    2.1611   21.1007 C   0  0  0  0  0  0  0  0  0  0  0  0
   22.7318    1.7340   21.0912 C   0  0  0  0  0  0  0  0  0  0  0  0
   23.6166    1.4865   22.0320 N   0  0  0  0  0  0  0  0  0  0  0  0
   22.8760    1.1907   19.9034 N   0  0  0  0  0  0  0  0  0  0  0  0
   21.7279    3.8321   22.0596 C   0  0  0  0  0  0  0  0  0  0  0  0
   20.4086    7.6584   26.0100 H   0  0  0  0  0  0  0  0  0  0  0  0
   12.5288   14.4944   26.3039 H   0  0  0  0  0  0  0  0  0  0  0  0
   16.8661    8.5755   25.7745 H   0  0  0  0  0  0  0  0  0  0  0  0
   21.2110    6.8102   28.3952 H   0  0  0  0  0  0  0  0  0  0  0  0
   20.7634    5.5753   22.8971 H   0  0  0  0  0  0  0  0  0  0  0  0
   13.1878    9.8175   26.7180 H   0  0  0  0  0  0  0  0  0  0  0  0
   15.6817   11.0183   22.6141 H   0  0  0  0  0  0  0  0  0  0  0  0
   21.5656    9.5878   27.1634 H   0  0  0  0  0  0  0  0  0  0  0  0
   22.5104    8.1553   26.7755 H   0  0  0  0  0  0  0  0  0  0  0  0
   23.7845    9.6315   28.2711 H   0  0  0  0  0  0  0  0  0  0  0  0
   23.4013    8.1358   29.1276 H   0  0  0  0  0  0  0  0  0  0  0  0
   20.6576    9.3768   31.2142 H   0  0  0  0  0  0  0  0  0  0  0  0
   21.6780    8.0059   30.7771 H   0  0  0  0  0  0  0  0  0  0  0  0
   21.6554   10.6728   29.2464 H   0  0  0  0  0  0  0  0  0  0  0  0
   22.5587   10.9893   31.4038 H   0  0  0  0  0  0  0  0  0  0  0  0
   23.6466    9.7495   31.2243 H   0  0  0  0  0  0  0  0  0  0  0  0
   19.4520    7.7085   29.7946 H   0  0  0  0  0  0  0  0  0  0  0  0
   19.5219    9.2857   29.0181 H   0  0  0  0  0  0  0  0  0  0  0  0
   14.2843    8.1052   25.4410 H   0  0  0  0  0  0  0  0  0  0  0  0
   12.2495   11.2535   27.5811 H   0  0  0  0  0  0  0  0  0  0  0  0
   11.7447   12.8775   27.7274 H   0  0  0  0  0  0  0  0  0  0  0  0
   14.6067   12.8004   23.8775 H   0  0  0  0  0  0  0  0  0  0  0  0
   16.5896    6.5796   21.9809 H   0  0  0  0  0  0  0  0  0  0  0  0
   19.2829    5.1029   25.0019 H   0  0  0  0  0  0  0  0  0  0  0  0
   18.1657    2.6046   21.2059 H   0  0  0  0  0  0  0  0  0  0  0  0
   20.0931    1.2062   20.6147 H   0  0  0  0  0  0  0  0  0  0  0  0
   24.4052    0.8729   21.8790 H   0  0  0  0  0  0  0  0  0  0  0  0
   22.2202    1.3795   19.1520 H   0  0  0  0  0  0  0  0  0  0  0  0
   23.6522    0.5771   19.6834 H   0  0  0  0  0  0  0  0  0  0  0  0
   22.7187    4.2188   22.2903 H   0  0  0  0  0  0  0  0  0  0  0  0
   13.6361   14.1123   25.0490 H   0  0  0  0  0  0  0  0  0  0  0  0
   23.7351   11.0928   30.2569 H   0  0  0  0  0  0  0  0  0  0  0  0
   23.4923    1.8667   22.9617 H   0  0  0  0  0  0  0  0  0  0  0  0
  1  6  1  0  0  0  0
  1  7  1  0  0  0  0
  1 37  1  0  0  0  0
  2 16  2  0  0  0  0
  2 38  1  0  0  0  0
  2 67  1  0  0  0  0
  3  4  2  0  0  0  0
  3 21  1  0  0  0  0
  3 26  1  0  0  0  0
  4  5  1  0  0  0  0
  4 39  1  0  0  0  0
  5  6  1  0  0  0  0
  5 28  2  0  0  0  0
  6 17  2  0  0  0  0
  7 13  1  0  0  0  0
  7 20  1  0  0  0  0
  7 40  1  1  0  0  0
  8 12  2  0  0  0  0
  8 21  1  0  0  0  0
  8 22  1  0  0  0  0
  9 32  2  0  0  0  0
  9 33  1  0  0  0  0
  9 36  1  0  0  0  0
 10 30  1  0  0  0  0
 10 36  2  0  0  0  0
 10 41  1  0  0  0  0
 11 22  2  0  0  0  0
 11 23  1  0  0  0  0
 11 42  1  0  0  0  0
 12 25  1  0  0  0  0
 12 43  1  0  0  0  0
 13 14  1  0  0  0  0
 13 44  1  0  0  0  0
 13 45  1  0  0  0  0
 14 18  1  0  0  0  0
 14 46  1  0  0  0  0
 14 47  1  0  0  0  0
 15 18  1  0  0  0  0
 15 20  1  0  0  0  0
 15 48  1  0  0  0  0
 15 49  1  0  0  0  0
 16 23  1  0  0  0  0
 16 24  1  0  0  0  0
 18 19  1  0  0  0  0
 18 50  1  6  0  0  0
 19 51  1  0  0  0  0
 19 52  1  0  0  0  0
 19 68  1  0  0  0  0
 20 53  1  0  0  0  0
 20 54  1  0  0  0  0
 22 55  1  0  0  0  0
 23 25  2  0  0  0  0
 24 56  1  0  0  0  0
 24 57  1  0  0  0  0
 25 58  1  0  0  0  0
 26 27  2  0  0  0  0
 26 59  1  0  0  0  0
 27 28  1  0  0  0  0
 27 29  1  0  0  0  0
 28 60  1  0  0  0  0
 29 30  1  0  0  0  0
 30 31  2  0  0  0  0
 31 32  1  0  0  0  0
 31 61  1  0  0  0  0
 32 62  1  0  0  0  0
 33 34  2  0  0  0  0
 33 35  1  0  0  0  0
 34 63  1  0  0  0  0
 34 69  1  0  0  0  0
 35 64  1  0  0  0  0
 35 65  1  0  0  0  0
 36 66  1  0  0  0  0
M  CHG  1  19   1
M  END
$$$$
