NTX
 OpenBabel04111920463D

 75 78  0  0  1  0  0  0  0  0999 V2000
   20.5575    2.7857   23.3441 N   0  0  0  0  0  0  0  0  0  0  0  0
   20.2129    8.6942   32.3391 N   0  0  0  0  0  0  0  0  0  0  0  0
   19.3561    6.0433   26.0389 C   0  0  0  0  0  0  0  0  0  0  0  0
   19.8747    5.1097   25.1472 C   0  0  0  0  0  0  0  0  0  0  0  0
   19.0394    4.6261   24.1312 C   0  0  0  0  0  0  0  0  0  0  0  0
   19.5537    3.6867   23.0924 C   0  0  0  0  0  0  0  0  0  0  0  0
   21.0234    1.8850   22.2741 C   0  0  1  0  0  0  0  0  0  0  0  0
   22.6073    8.2982   27.7224 C   0  0  0  0  0  0  0  0  0  0  0  0
   14.7909   10.3111   23.0721 C   0  0  0  0  0  0  0  0  0  0  0  0
   13.9677   11.0927   25.2503 C   0  0  0  0  0  0  0  0  0  0  0  0
   14.8510    8.7818   24.9681 C   0  0  0  0  0  0  0  0  0  0  0  0
   21.6584    8.8124   30.3406 C   0  0  0  0  0  0  0  0  0  0  0  0
   22.5178    9.7069   29.6478 C   0  0  0  0  0  0  0  0  0  0  0  0
   22.9799    9.4665   28.3624 C   0  0  0  0  0  0  0  0  0  0  0  0
   23.2062    1.0172   21.2423 C   0  0  0  0  0  0  0  0  0  0  0  0
   21.4371   -0.6045   21.7534 C   0  0  0  0  0  0  0  0  0  0  0  0
   21.2246    9.2147   31.6940 C   0  0  0  0  0  0  0  0  0  0  0  0
   19.0208    3.7606   21.9739 O   0  0  0  0  0  0  0  0  0  0  0  0
   22.5250    2.1219   22.0421 C   0  0  0  0  0  0  0  0  0  0  0  0
   22.9098   -0.2935   21.9445 C   0  0  1  0  0  0  0  0  0  0  0  0
   23.7660   -1.3625   21.4284 N   0  3  0  0  0  0  0  0  0  0  0  0
   20.6682    0.4172   22.5965 C   0  0  0  0  0  0  0  0  0  0  0  0
   20.0382    6.5987   27.0825 O   0  0  0  0  0  0  0  0  0  0  0  0
   21.3125    6.1571   27.5684 C   0  0  0  0  0  0  0  0  0  0  0  0
   21.7900    7.3615   28.3651 C   0  0  0  0  0  0  0  0  0  0  0  0
   21.8907   10.2020   32.2976 N   0  0  0  0  0  0  0  0  0  0  0  0
   21.3065    7.6313   29.6739 C   0  0  0  0  0  0  0  0  0  0  0  0
   18.0236    6.5130   25.8820 C   0  0  0  0  0  0  0  0  0  0  0  0
   17.1634    6.0596   24.8762 C   0  0  0  0  0  0  0  0  0  0  0  0
   17.7021    5.1006   23.9979 C   0  0  0  0  0  0  0  0  0  0  0  0
   15.8507    6.4542   24.6864 O   0  0  0  0  0  0  0  0  0  0  0  0
   15.1908    7.4051   25.5715 C   0  0  0  0  0  0  0  0  0  0  0  0
   14.2752    9.8092   25.7733 C   0  0  0  0  0  0  0  0  0  0  0  0
   13.4065   12.1995   26.0768 C   0  0  0  0  0  0  0  0  0  0  0  0
   12.7464   11.9959   27.2016 N   0  0  0  0  0  0  0  0  0  0  0  0
   13.5621   13.4524   25.6922 N   0  0  0  0  0  0  0  0  0  0  0  0
   14.2460   11.3094   23.8811 C   0  0  0  0  0  0  0  0  0  0  0  0
   15.0908    9.0567   23.6186 C   0  0  0  0  0  0  0  0  0  0  0  0
   20.9780    2.7122   24.2657 H   0  0  0  0  0  0  0  0  0  0  0  0
   19.9394    9.0334   33.2504 H   0  0  0  0  0  0  0  0  0  0  0  0
   20.9024    4.7891   25.2141 H   0  0  0  0  0  0  0  0  0  0  0  0
   20.5075    2.1331   21.3339 H   0  0  0  0  0  0  0  0  0  0  0  0
   22.9510    8.1315   26.7021 H   0  0  0  0  0  0  0  0  0  0  0  0
   14.9828   10.5014   22.0135 H   0  0  0  0  0  0  0  0  0  0  0  0
   22.8379   10.6415   30.0878 H   0  0  0  0  0  0  0  0  0  0  0  0
   23.6171   10.1956   27.8762 H   0  0  0  0  0  0  0  0  0  0  0  0
   24.2829    1.2002   21.1854 H   0  0  0  0  0  0  0  0  0  0  0  0
   22.8138    1.0053   20.2156 H   0  0  0  0  0  0  0  0  0  0  0  0
   21.1991   -1.6246   22.0717 H   0  0  0  0  0  0  0  0  0  0  0  0
   21.1500   -0.5143   20.6952 H   0  0  0  0  0  0  0  0  0  0  0  0
   23.0203    2.1878   23.0201 H   0  0  0  0  0  0  0  0  0  0  0  0
   22.6723    3.0804   21.5364 H   0  0  0  0  0  0  0  0  0  0  0  0
   23.1439   -0.2197   23.0114 H   0  0  0  0  0  0  0  0  0  0  0  0
   23.5764   -2.2527   21.9096 H   0  0  0  0  0  0  0  0  0  0  0  0
   23.6400   -1.5123   20.4202 H   0  0  0  0  0  0  0  0  0  0  0  0
   19.5943    0.2576   22.4688 H   0  0  0  0  0  0  0  0  0  0  0  0
   20.9051    0.2280   23.6524 H   0  0  0  0  0  0  0  0  0  0  0  0
   22.0502    5.9056   26.7894 H   0  0  0  0  0  0  0  0  0  0  0  0
   21.2208    5.2899   28.2396 H   0  0  0  0  0  0  0  0  0  0  0  0
   22.6984   10.6132   31.8545 H   0  0  0  0  0  0  0  0  0  0  0  0
   21.6444   10.5695   33.1882 H   0  0  0  0  0  0  0  0  0  0  0  0
   20.6468    6.9105   30.1467 H   0  0  0  0  0  0  0  0  0  0  0  0
   17.6707    7.2503   26.5987 H   0  0  0  0  0  0  0  0  0  0  0  0
   17.0815    4.6909   23.1932 H   0  0  0  0  0  0  0  0  0  0  0  0
   14.2355    6.9613   25.8975 H   0  0  0  0  0  0  0  0  0  0  0  0
   15.7712    7.5812   26.4733 H   0  0  0  0  0  0  0  0  0  0  0  0
   14.0893    9.6006   26.8244 H   0  0  0  0  0  0  0  0  0  0  0  0
   12.3616   12.7621   27.7345 H   0  0  0  0  0  0  0  0  0  0  0  0
   14.0686   13.6792   24.8410 H   0  0  0  0  0  0  0  0  0  0  0  0
   13.1934   14.2292   26.2150 H   0  0  0  0  0  0  0  0  0  0  0  0
   14.0291   12.2693   23.4144 H   0  0  0  0  0  0  0  0  0  0  0  0
   15.5193    8.2904   22.9761 H   0  0  0  0  0  0  0  0  0  0  0  0
   19.6561    7.9398   31.9523 H   0  0  0  0  0  0  0  0  0  0  0  0
   24.7592   -1.1417   21.5925 H   0  0  0  0  0  0  0  0  0  0  0  0
   12.5616   11.0618   27.5500 H   0  0  0  0  0  0  0  0  0  0  0  0
  1  6  1  0  0  0  0
  1  7  1  0  0  0  0
  1 39  1  0  0  0  0
  2 17  2  0  0  0  0
  2 40  1  0  0  0  0
  2 73  1  0  0  0  0
  3  4  2  0  0  0  0
  3 23  1  0  0  0  0
  3 28  1  0  0  0  0
  4  5  1  0  0  0  0
  4 41  1  0  0  0  0
  5  6  1  0  0  0  0
  5 30  2  0  0  0  0
  6 18  2  0  0  0  0
  7 19  1  0  0  0  0
  7 22  1  0  0  0  0
  7 42  1  6  0  0  0
  8 14  2  0  0  0  0
  8 25  1  0  0  0  0
  8 43  1  0  0  0  0
  9 37  2  0  0  0  0
  9 38  1  0  0  0  0
  9 44  1  0  0  0  0
 10 33  2  0  0  0  0
 10 34  1  0  0  0  0
 10 37  1  0  0  0  0
 11 32  1  0  0  0  0
 11 33  1  0  0  0  0
 11 38  2  0  0  0  0
 12 13  2  0  0  0  0
 12 17  1  0  0  0  0
 12 27  1  0  0  0  0
 13 14  1  0  0  0  0
 13 45  1  0  0  0  0
 14 46  1  0  0  0  0
 15 19  1  0  0  0  0
 15 20  1  0  0  0  0
 15 47  1  0  0  0  0
 15 48  1  0  0  0  0
 16 20  1  0  0  0  0
 16 22  1  0  0  0  0
 16 49  1  0  0  0  0
 16 50  1  0  0  0  0
 17 26  1  0  0  0  0
 19 51  1  0  0  0  0
 19 52  1  0  0  0  0
 20 21  1  0  0  0  0
 20 53  1  1  0  0  0
 21 54  1  0  0  0  0
 21 55  1  0  0  0  0
 21 74  1  0  0  0  0
 22 56  1  0  0  0  0
 22 57  1  0  0  0  0
 23 24  1  0  0  0  0
 24 25  1  0  0  0  0
 24 58  1  0  0  0  0
 24 59  1  0  0  0  0
 25 27  2  0  0  0  0
 26 60  1  0  0  0  0
 26 61  1  0  0  0  0
 27 62  1  0  0  0  0
 28 29  2  0  0  0  0
 28 63  1  0  0  0  0
 29 30  1  0  0  0  0
 29 31  1  0  0  0  0
 30 64  1  0  0  0  0
 31 32  1  0  0  0  0
 32 65  1  0  0  0  0
 32 66  1  0  0  0  0
 33 67  1  0  0  0  0
 34 35  2  0  0  0  0
 34 36  1  0  0  0  0
 35 68  1  0  0  0  0
 35 75  1  0  0  0  0
 36 69  1  0  0  0  0
 36 70  1  0  0  0  0
 37 71  1  0  0  0  0
 38 72  1  0  0  0  0
M  CHG  1  21   1
M  END
$$$$
