NVX
 OpenBabel04111922523D

 42 45  0  0  1  0  0  0  0  0999 V2000
  -25.5722  -10.1663   21.1919 C   0  0  0  0  0  0  0  0  0  0  0  0
  -25.8006  -11.5439   21.1811 C   0  0  0  0  0  0  0  0  0  0  0  0
  -25.7209  -12.2254   19.9548 N   0  0  0  0  0  0  0  0  0  0  0  0
  -25.8491  -13.4939   19.9782 C   0  0  0  0  0  0  0  0  0  0  0  0
  -26.0578  -14.2461   21.1053 N   0  3  0  0  0  0  0  0  0  0  0  0
  -26.1852  -13.6798   22.3555 C   0  0  0  0  0  0  0  0  0  0  0  0
  -26.3610  -14.3415   23.3761 O   0  0  0  0  0  0  0  0  0  0  0  0
  -26.0576  -12.2055   22.3817 C   0  0  0  0  0  0  0  0  0  0  0  0
  -26.1524  -11.4928   23.5722 C   0  0  0  0  0  0  0  0  0  0  0  0
  -25.9189  -10.1170   23.5663 C   0  0  0  0  0  0  0  0  0  0  0  0
  -25.5722   -9.4462   22.3887 C   0  0  0  0  0  0  0  0  0  0  0  0
  -25.0954   -8.0157   22.4681 C   0  0  1  0  0  0  0  0  0  0  0  0
  -23.5659   -7.9806   22.5047 C   0  0  0  0  0  0  0  0  0  0  0  0
  -23.1936   -6.5937   22.0748 N   0  3  0  0  0  0  0  0  0  0  0  0
  -24.3692   -6.0184   21.3531 C   0  0  0  0  0  0  0  0  0  0  0  0
  -25.4244   -7.1127   21.2824 C   0  0  2  0  0  0  0  0  0  0  0  0
  -26.8252   -6.5052   21.3402 C   0  0  0  0  0  0  0  0  0  0  0  0
  -27.5337   -6.6312   22.3316 O   0  0  0  0  0  0  0  0  0  0  0  0
  -27.3114   -5.7239   20.1587 C   0  0  0  0  0  0  0  0  0  0  0  0
  -28.5456   -5.0653   20.1415 C   0  0  0  0  0  0  0  0  0  0  0  0
  -28.9266   -4.3495   19.0053 C   0  0  0  0  0  0  0  0  0  0  0  0
  -30.4706   -3.6032   18.9355 Cl  0  0  0  0  0  0  0  0  0  0  0  0
  -28.0774   -4.2504   17.9067 C   0  0  0  0  0  0  0  0  0  0  0  0
  -26.8557   -4.9107   17.9204 C   0  0  0  0  0  0  0  0  0  0  0  0
  -26.4893   -5.6488   19.0365 C   0  0  0  0  0  0  0  0  0  0  0  0
  -25.3627   -9.6668   20.2521 H   0  0  0  0  0  0  0  0  0  0  0  0
  -25.7902  -14.0796   19.0480 H   0  0  0  0  0  0  0  0  0  0  0  0
  -26.1229  -15.2475   21.0439 H   0  0  0  0  0  0  0  0  0  0  0  0
  -26.3945  -12.0000   24.5029 H   0  0  0  0  0  0  0  0  0  0  0  0
  -25.9969   -9.5705   24.5048 H   0  0  0  0  0  0  0  0  0  0  0  0
  -25.4871   -7.5823   23.3953 H   0  0  0  0  0  0  0  0  0  0  0  0
  -23.1053   -8.6674   21.7852 H   0  0  0  0  0  0  0  0  0  0  0  0
  -23.1537   -8.1467   23.5025 H   0  0  0  0  0  0  0  0  0  0  0  0
  -22.9598   -6.0172   22.8975 H   0  0  0  0  0  0  0  0  0  0  0  0
  -24.0118   -5.7225   20.3630 H   0  0  0  0  0  0  0  0  0  0  0  0
  -24.7025   -5.1423   21.9111 H   0  0  0  0  0  0  0  0  0  0  0  0
  -25.3363   -7.6604   20.3420 H   0  0  0  0  0  0  0  0  0  0  0  0
  -29.2158   -5.1072   20.9961 H   0  0  0  0  0  0  0  0  0  0  0  0
  -28.3685   -3.6657   17.0355 H   0  0  0  0  0  0  0  0  0  0  0  0
  -26.1967   -4.8594   17.0633 H   0  0  0  0  0  0  0  0  0  0  0  0
  -25.5453   -6.1655   19.0009 H   0  0  0  0  0  0  0  0  0  0  0  0
  -22.3528   -6.6067   21.4756 H   0  0  0  0  0  0  0  0  0  0  0  0
  1  2  2  0  0  0  0
  1 11  1  0  0  0  0
  1 26  1  0  0  0  0
  2  3  1  0  0  0  0
  2  8  1  0  0  0  0
  3  4  2  0  0  0  0
  4  5  1  0  0  0  0
  4 27  1  0  0  0  0
  5  6  1  0  0  0  0
  5 28  1  0  0  0  0
  6  7  2  0  0  0  0
  6  8  1  0  0  0  0
  8  9  2  0  0  0  0
  9 10  1  0  0  0  0
  9 29  1  0  0  0  0
 10 11  2  0  0  0  0
 10 30  1  0  0  0  0
 11 12  1  0  0  0  0
 12 13  1  0  0  0  0
 12 16  1  0  0  0  0
 12 31  1  1  0  0  0
 13 14  1  0  0  0  0
 13 32  1  0  0  0  0
 13 33  1  0  0  0  0
 14 15  1  0  0  0  0
 14 34  1  0  0  0  0
 14 42  1  0  0  0  0
 15 16  1  0  0  0  0
 15 35  1  0  0  0  0
 15 36  1  0  0  0  0
 16 17  1  0  0  0  0
 16 37  1  6  0  0  0
 17 18  2  0  0  0  0
 17 19  1  0  0  0  0
 19 20  2  0  0  0  0
 19 25  1  0  0  0  0
 20 21  1  0  0  0  0
 20 38  1  0  0  0  0
 21 22  1  0  0  0  0
 21 23  2  0  0  0  0
 23 24  1  0  0  0  0
 23 39  1  0  0  0  0
 24 25  2  0  0  0  0
 24 40  1  0  0  0  0
 25 41  1  0  0  0  0
M  CHG  2   5   1  14   1
M  END
$$$$
