NVX
 OpenBabel04111922093D

 42 45  0  0  1  0  0  0  0  0999 V2000
  -28.8671    9.4063    2.3662 C   0  0  0  0  0  0  0  0  0  0  0  0
  -30.2426    9.6371    2.3822 C   0  0  0  0  0  0  0  0  0  0  0  0
  -30.9910    9.5619    1.2065 N   0  3  0  0  0  0  0  0  0  0  0  0
  -32.3458    9.7894    1.3138 C   0  0  0  0  0  0  0  0  0  0  0  0
  -33.0352   10.0642    2.3867 N   0  0  0  0  0  0  0  0  0  0  0  0
  -32.3747   10.1558    3.5988 C   0  0  0  0  0  0  0  0  0  0  0  0
  -32.9252   10.3692    4.6492 O   0  0  0  0  0  0  0  0  0  0  0  0
  -30.8889    9.9472    3.5785 C   0  0  0  0  0  0  0  0  0  0  0  0
  -30.1590   10.0071    4.7545 C   0  0  0  0  0  0  0  0  0  0  0  0
  -28.7862    9.7769    4.7323 C   0  0  0  0  0  0  0  0  0  0  0  0
  -28.1152    9.5201    3.5346 C   0  0  0  0  0  0  0  0  0  0  0  0
  -26.6593    9.1567    3.5713 C   0  0  1  0  0  0  0  0  0  0  0  0
  -26.6965    7.6198    3.4574 C   0  0  0  0  0  0  0  0  0  0  0  0
  -25.3092    7.2110    3.0957 N   0  3  0  0  0  0  0  0  0  0  0  0
  -24.5846    8.4896    2.7712 C   0  0  0  0  0  0  0  0  0  0  0  0
  -25.6690    9.5262    2.4513 C   0  0  2  0  0  0  0  0  0  0  0  0
  -25.0132   10.9126    2.5138 C   0  0  0  0  0  0  0  0  0  0  0  0
  -25.0215   11.5900    3.5245 O   0  0  0  0  0  0  0  0  0  0  0  0
  -24.2490   11.4044    1.3198 C   0  0  0  0  0  0  0  0  0  0  0  0
  -23.7991   12.7094    1.2336 C   0  0  0  0  0  0  0  0  0  0  0  0
  -23.0985   13.0838    0.0769 C   0  0  0  0  0  0  0  0  0  0  0  0
  -22.5600   14.6838   -0.1285 Cl  0  0  0  0  0  0  0  0  0  0  0  0
  -22.8080   12.2147   -0.9727 C   0  0  0  0  0  0  0  0  0  0  0  0
  -23.2491   10.9200   -0.8681 C   0  0  0  0  0  0  0  0  0  0  0  0
  -23.9463   10.5308    0.2716 C   0  0  0  0  0  0  0  0  0  0  0  0
  -28.3717    9.1108    1.4509 H   0  0  0  0  0  0  0  0  0  0  0  0
  -30.5099    9.3641    0.3377 H   0  0  0  0  0  0  0  0  0  0  0  0
  -32.8813    9.7298    0.3500 H   0  0  0  0  0  0  0  0  0  0  0  0
  -30.6668   10.2300    5.6857 H   0  0  0  0  0  0  0  0  0  0  0  0
  -28.2383    9.8014    5.6693 H   0  0  0  0  0  0  0  0  0  0  0  0
  -26.2469    9.5432    4.5187 H   0  0  0  0  0  0  0  0  0  0  0  0
  -27.3561    7.2666    2.6396 H   0  0  0  0  0  0  0  0  0  0  0  0
  -26.9975    7.1229    4.3833 H   0  0  0  0  0  0  0  0  0  0  0  0
  -24.8704    6.6992    3.8849 H   0  0  0  0  0  0  0  0  0  0  0  0
  -23.9099    8.2853    1.9437 H   0  0  0  0  0  0  0  0  0  0  0  0
  -23.9986    8.7554    3.6629 H   0  0  0  0  0  0  0  0  0  0  0  0
  -26.1492    9.4017    1.4692 H   0  0  0  0  0  0  0  0  0  0  0  0
  -23.9695   13.4322    2.0281 H   0  0  0  0  0  0  0  0  0  0  0  0
  -22.2453   12.5762   -1.8343 H   0  0  0  0  0  0  0  0  0  0  0  0
  -23.0560   10.2220   -1.6701 H   0  0  0  0  0  0  0  0  0  0  0  0
  -24.2493    9.5024    0.3348 H   0  0  0  0  0  0  0  0  0  0  0  0
  -25.3002    6.5526    2.2957 H   0  0  0  0  0  0  0  0  0  0  0  0
  1  2  2  0  0  0  0
  1 11  1  0  0  0  0
  1 26  1  0  0  0  0
  2  3  1  0  0  0  0
  2  8  1  0  0  0  0
  3  4  2  0  0  0  0
  3 27  1  0  0  0  0
  4  5  1  0  0  0  0
  4 28  1  0  0  0  0
  5  6  1  0  0  0  0
  6  7  2  0  0  0  0
  6  8  1  0  0  0  0
  8  9  2  0  0  0  0
  9 10  1  0  0  0  0
  9 29  1  0  0  0  0
 10 11  2  0  0  0  0
 10 30  1  0  0  0  0
 11 12  1  0  0  0  0
 12 13  1  0  0  0  0
 12 16  1  0  0  0  0
 12 31  1  1  0  0  0
 13 14  1  0  0  0  0
 13 32  1  0  0  0  0
 13 33  1  0  0  0  0
 14 15  1  0  0  0  0
 14 34  1  0  0  0  0
 14 42  1  0  0  0  0
 15 16  1  0  0  0  0
 15 35  1  0  0  0  0
 15 36  1  0  0  0  0
 16 17  1  0  0  0  0
 16 37  1  6  0  0  0
 17 18  2  0  0  0  0
 17 19  1  0  0  0  0
 19 20  2  0  0  0  0
 19 25  1  0  0  0  0
 20 21  1  0  0  0  0
 20 38  1  0  0  0  0
 21 22  1  0  0  0  0
 21 23  2  0  0  0  0
 23 24  1  0  0  0  0
 23 39  1  0  0  0  0
 24 25  2  0  0  0  0
 24 40  1  0  0  0  0
 25 41  1  0  0  0  0
M  CHG  2   3   1  14   1
M  END
$$$$
