OAG
 OpenBabel04111919023D

 34 36  0  0  0  0  0  0  0  0999 V2000
   30.0443   13.9888    0.8770 C   0  0  0  0  0  0  0  0  0  0  0  0
   31.1894   13.2562    1.3217 N   0  0  0  0  0  0  0  0  0  0  0  0
   33.4236   11.5925    2.4757 Cl  0  0  0  0  0  0  0  0  0  0  0  0
   34.2065   16.7588   -0.9110 Cl  0  0  0  0  0  0  0  0  0  0  0  0
   28.4047   13.2029   -0.7571 C   0  0  0  0  0  0  0  0  0  0  0  0
   32.4635   13.7242    1.0727 C   0  0  0  0  0  0  0  0  0  0  0  0
   28.4327   12.6113   -4.3323 N   0  0  0  0  0  0  0  0  0  0  0  0
   29.6849   13.6411   -0.5364 C   0  0  0  0  0  0  0  0  0  0  0  0
   33.5836   13.0478    1.5588 C   0  0  0  0  0  0  0  0  0  0  0  0
   35.0478   14.6664    0.5239 C   0  0  0  0  0  0  0  0  0  0  0  0
   27.1786   12.1790   -4.4777 C   0  0  0  0  0  0  0  0  0  0  0  0
   26.7362   11.8665   -5.7275 N   0  0  0  0  0  0  0  0  0  0  0  0
   34.8618   13.5437    1.3224 C   0  0  0  0  0  0  0  0  0  0  0  0
   26.2919   12.0313   -3.4917 N   0  0  0  0  0  0  0  0  0  0  0  0
   26.6908   12.3514   -2.2719 C   0  0  0  0  0  0  0  0  0  0  0  0
   25.7499   12.2340   -1.2744 N   0  0  0  0  0  0  0  0  0  0  0  0
   27.9719   12.8340   -2.0321 C   0  0  0  0  0  0  0  0  0  0  0  0
   33.9569   15.3606    0.0452 C   0  0  0  0  0  0  0  0  0  0  0  0
   32.6944   14.9155    0.3559 C   0  0  0  0  0  0  0  0  0  0  0  0
   30.4971   13.7210   -1.6671 C   0  0  0  0  0  0  0  0  0  0  0  0
   30.0845   13.3847   -2.9246 N   0  0  0  0  0  0  0  0  0  0  0  0
   28.8354   12.9402   -3.1150 C   0  0  0  0  0  0  0  0  0  0  0  0
   30.1735   15.0697    1.0046 H   0  0  0  0  0  0  0  0  0  0  0  0
   29.2171   13.7480    1.5563 H   0  0  0  0  0  0  0  0  0  0  0  0
   31.0745   12.3391    1.7610 H   0  0  0  0  0  0  0  0  0  0  0  0
   27.7218   13.1429    0.0860 H   0  0  0  0  0  0  0  0  0  0  0  0
   36.0493   15.0102    0.2833 H   0  0  0  0  0  0  0  0  0  0  0  0
   27.3729   11.9622   -6.4960 H   0  0  0  0  0  0  0  0  0  0  0  0
   25.7898   11.5409   -5.8168 H   0  0  0  0  0  0  0  0  0  0  0  0
   35.7210   13.0711    1.7670 H   0  0  0  0  0  0  0  0  0  0  0  0
   25.9565   12.3445   -0.2973 H   0  0  0  0  0  0  0  0  0  0  0  0
   24.8589   11.8491   -1.5503 H   0  0  0  0  0  0  0  0  0  0  0  0
   31.8608   15.5095   -0.0404 H   0  0  0  0  0  0  0  0  0  0  0  0
   31.5206   14.0550   -1.6437 H   0  0  0  0  0  0  0  0  0  0  0  0
  1  2  1  0  0  0  0
  1  8  1  0  0  0  0
  1 23  1  0  0  0  0
  1 24  1  0  0  0  0
  2  6  1  0  0  0  0
  2 25  1  0  0  0  0
  3  9  1  0  0  0  0
  4 18  1  0  0  0  0
  5  8  2  0  0  0  0
  5 17  1  0  0  0  0
  5 26  1  0  0  0  0
  6  9  2  0  0  0  0
  6 19  1  0  0  0  0
  7 11  2  0  0  0  0
  7 22  1  0  0  0  0
  8 20  1  0  0  0  0
  9 13  1  0  0  0  0
 10 13  2  0  0  0  0
 10 18  1  0  0  0  0
 10 27  1  0  0  0  0
 11 12  1  0  0  0  0
 11 14  1  0  0  0  0
 12 28  1  0  0  0  0
 12 29  1  0  0  0  0
 13 30  1  0  0  0  0
 14 15  2  0  0  0  0
 15 16  1  0  0  0  0
 15 17  1  0  0  0  0
 16 31  1  0  0  0  0
 16 32  1  0  0  0  0
 17 22  2  0  0  0  0
 18 19  2  0  0  0  0
 19 33  1  0  0  0  0
 20 21  2  0  0  0  0
 20 34  1  0  0  0  0
 21 22  1  0  0  0  0
M  END
$$$$
