OAN
 OpenBabel04111917523D

 44 45  0  0  1  0  0  0  0  0999 V2000
  -26.1680   34.9268   -7.5197 C   0  0  0  0  0  0  0  0  0  0  0  0
  -25.2182   35.0375   -8.6810 C   0  0  0  0  0  0  0  0  0  0  0  0
  -24.9875   34.0984   -9.4327 O   0  0  0  0  0  0  0  0  0  0  0  0
  -24.6187   36.2660   -8.8216 N   0  0  0  0  0  0  0  0  0  0  0  0
  -23.7432   36.5724   -9.9629 C   0  0  2  0  0  0  0  0  0  0  0  0
  -24.5144   36.8423  -11.2524 C   0  0  1  0  0  0  0  0  0  0  0  0
  -24.9688   38.2094  -11.2173 O   0  0  0  0  0  0  0  0  0  0  0  0
  -23.6219   36.6337  -12.4819 C   0  0  2  0  0  0  0  0  0  0  0  0
  -24.3885   36.8647  -13.6685 O   0  0  0  0  0  0  0  0  0  0  0  0
  -23.1305   35.1868  -12.4476 C   0  0  1  0  0  0  0  0  0  0  0  0
  -22.1593   34.8701  -13.5919 C   0  0  0  0  0  0  0  0  0  0  0  0
  -20.9629   35.6372  -13.4562 O   0  0  0  0  0  0  0  0  0  0  0  0
  -22.4286   34.8797  -11.2297 O   0  0  0  0  0  0  0  0  0  0  0  0
  -22.6094   35.5565  -10.0835 C   0  0  0  0  0  0  0  0  0  0  0  0
  -21.7811   35.4120   -9.0905 N   0  0  0  0  0  0  0  0  0  0  0  0
  -20.8265   34.4214   -9.4206 O   0  0  0  0  0  0  0  0  0  0  0  0
  -19.6114   34.6318   -8.8109 C   0  0  0  0  0  0  0  0  0  0  0  0
  -18.7006   33.8110   -8.9152 O   0  0  0  0  0  0  0  0  0  0  0  0
  -19.5610   35.8022   -8.0852 N   0  0  0  0  0  0  0  0  0  0  0  0
  -18.4679   36.1928   -7.3067 C   0  0  0  0  0  0  0  0  0  0  0  0
  -18.7000   36.6559   -6.0137 C   0  0  0  0  0  0  0  0  0  0  0  0
  -17.6286   37.0359   -5.2074 C   0  0  0  0  0  0  0  0  0  0  0  0
  -16.3286   37.0021   -5.7188 C   0  0  0  0  0  0  0  0  0  0  0  0
  -16.0934   36.5690   -7.0245 C   0  0  0  0  0  0  0  0  0  0  0  0
  -17.1720   36.1414   -7.8144 C   0  0  0  0  0  0  0  0  0  0  0  0
  -26.3354   35.8932   -7.0367 H   0  0  0  0  0  0  0  0  0  0  0  0
  -25.7568   34.2326   -6.7799 H   0  0  0  0  0  0  0  0  0  0  0  0
  -27.1270   34.5505   -7.8828 H   0  0  0  0  0  0  0  0  0  0  0  0
  -24.9428   37.0397   -8.2532 H   0  0  0  0  0  0  0  0  0  0  0  0
  -23.2485   37.5072   -9.6676 H   0  0  0  0  0  0  0  0  0  0  0  0
  -25.4081   36.2137  -11.3400 H   0  0  0  0  0  0  0  0  0  0  0  0
  -25.6811   38.2587  -10.5577 H   0  0  0  0  0  0  0  0  0  0  0  0
  -22.7953   37.3571  -12.4588 H   0  0  0  0  0  0  0  0  0  0  0  0
  -23.7654   36.9373  -14.4140 H   0  0  0  0  0  0  0  0  0  0  0  0
  -23.9815   34.5001  -12.5388 H   0  0  0  0  0  0  0  0  0  0  0  0
  -22.5937   35.0895  -14.5711 H   0  0  0  0  0  0  0  0  0  0  0  0
  -21.8764   33.8120  -13.5775 H   0  0  0  0  0  0  0  0  0  0  0  0
  -20.5223   35.3096  -12.6474 H   0  0  0  0  0  0  0  0  0  0  0  0
  -20.4851   36.1735   -7.9074 H   0  0  0  0  0  0  0  0  0  0  0  0
  -19.7077   36.6553   -5.5981 H   0  0  0  0  0  0  0  0  0  0  0  0
  -17.7998   37.3397   -4.1833 H   0  0  0  0  0  0  0  0  0  0  0  0
  -15.4909   37.3108   -5.0930 H   0  0  0  0  0  0  0  0  0  0  0  0
  -15.0888   36.5551   -7.4247 H   0  0  0  0  0  0  0  0  0  0  0  0
  -16.9768   35.8107   -8.8258 H   0  0  0  0  0  0  0  0  0  0  0  0
  1  2  1  0  0  0  0
  1 26  1  0  0  0  0
  1 27  1  0  0  0  0
  1 28  1  0  0  0  0
  2  3  2  0  0  0  0
  2  4  1  0  0  0  0
  4  5  1  0  0  0  0
  4 29  1  0  0  0  0
  5  6  1  0  0  0  0
  5 14  1  0  0  0  0
  5 30  1  1  0  0  0
  6  7  1  0  0  0  0
  6  8  1  0  0  0  0
  6 31  1  6  0  0  0
  7 32  1  0  0  0  0
  8  9  1  0  0  0  0
  8 10  1  0  0  0  0
  8 33  1  1  0  0  0
  9 34  1  0  0  0  0
 10 11  1  0  0  0  0
 10 13  1  0  0  0  0
 10 35  1  6  0  0  0
 11 12  1  0  0  0  0
 11 36  1  0  0  0  0
 11 37  1  0  0  0  0
 12 38  1  0  0  0  0
 13 14  1  0  0  0  0
 14 15  2  0  0  0  0
 15 16  1  0  0  0  0
 16 17  1  0  0  0  0
 17 18  2  0  0  0  0
 17 19  1  0  0  0  0
 19 20  1  0  0  0  0
 19 39  1  0  0  0  0
 20 21  2  0  0  0  0
 20 25  1  0  0  0  0
 21 22  1  0  0  0  0
 21 40  1  0  0  0  0
 22 23  2  0  0  0  0
 22 41  1  0  0  0  0
 23 24  1  0  0  0  0
 23 42  1  0  0  0  0
 24 25  2  0  0  0  0
 24 43  1  0  0  0  0
 25 44  1  0  0  0  0
M  END
$$$$
