OMD
 OpenBabel04111917453D

 19 19  0  0  0  0  0  0  0  0999 V2000
   17.6276   42.2426    0.3423 C   0  0  0  0  0  0  0  0  0  0  0  0
   16.6681   42.3325   -0.8480 C   0  0  0  0  0  0  0  0  0  0  0  0
   17.3621   42.6204   -2.1565 C   0  0  0  0  0  0  0  0  0  0  0  0
   17.6513   41.5800   -3.0553 C   0  0  0  0  0  0  0  0  0  0  0  0
   18.3195   41.8659   -4.2538 C   0  0  0  0  0  0  0  0  0  0  0  0
   18.6370   40.8784   -5.1351 O   0  0  0  0  0  0  0  0  0  0  0  0
   18.7004   43.1600   -4.5680 C   0  0  0  0  0  0  0  0  0  0  0  0
   18.4411   44.1903   -3.6768 C   0  0  0  0  0  0  0  0  0  0  0  0
   17.7731   43.9159   -2.4864 C   0  0  0  0  0  0  0  0  0  0  0  0
   17.5065   44.9649   -1.6557 O   0  0  0  0  0  0  0  0  0  0  0  0
   17.3043   42.9309    1.3543 O   0  0  0  0  0  0  0  0  0  0  0  0
   18.6101   41.4480    0.2110 O   0  0  0  0  0  0  0  0  0  0  0  0
   15.9171   43.1088   -0.6640 H   0  0  0  0  0  0  0  0  0  0  0  0
   16.1090   41.3894   -0.9108 H   0  0  0  0  0  0  0  0  0  0  0  0
   17.3624   40.5622   -2.8129 H   0  0  0  0  0  0  0  0  0  0  0  0
   19.0305   40.1662   -4.6004 H   0  0  0  0  0  0  0  0  0  0  0  0
   19.2124   43.3587   -5.5063 H   0  0  0  0  0  0  0  0  0  0  0  0
   18.7465   45.2050   -3.9085 H   0  0  0  0  0  0  0  0  0  0  0  0
   18.3584   45.2022   -1.2475 H   0  0  0  0  0  0  0  0  0  0  0  0
  1  2  1  0  0  0  0
  1 11  2  0  0  0  0
  1 12  1  0  0  0  0
  2  3  1  0  0  0  0
  2 13  1  0  0  0  0
  2 14  1  0  0  0  0
  3  4  2  0  0  0  0
  3  9  1  0  0  0  0
  4  5  1  0  0  0  0
  4 15  1  0  0  0  0
  5  6  1  0  0  0  0
  5  7  2  0  0  0  0
  6 16  1  0  0  0  0
  7  8  1  0  0  0  0
  7 17  1  0  0  0  0
  8  9  2  0  0  0  0
  8 18  1  0  0  0  0
  9 10  1  0  0  0  0
 10 19  1  0  0  0  0
M  END
$$$$
