OTM
 OpenBabel04111918233D

 59 63  0  0  1  0  0  0  0  0999 V2000
  -49.6442  -10.0161  -23.1696 C   0  0  0  0  0  0  0  0  0  0  0  0
  -49.5198   -9.1416  -24.0389 O   0  0  0  0  0  0  0  0  0  0  0  0
  -48.8434   -9.9040  -21.9398 C   0  0  0  0  0  0  0  0  0  0  0  0
  -48.9490  -10.7286  -20.8985 C   0  0  0  0  0  0  0  0  0  0  0  0
  -48.1110  -10.4865  -19.7153 C   0  0  0  0  0  0  0  0  0  0  0  0
  -46.7155  -10.5371  -19.8414 C   0  0  0  0  0  0  0  0  0  0  0  0
  -45.8784  -10.3206  -18.7441 C   0  0  0  0  0  0  0  0  0  0  0  0
  -46.4229  -10.0631  -17.4942 C   0  0  0  0  0  0  0  0  0  0  0  0
  -47.8063  -10.0377  -17.3398 C   0  0  0  0  0  0  0  0  0  0  0  0
  -48.6352  -10.2396  -18.4439 C   0  0  0  0  0  0  0  0  0  0  0  0
  -50.0140  -10.1835  -18.2450 N   0  3  0  0  0  0  0  0  0  0  0  0
  -50.7608  -10.9372  -17.3827 C   0  0  0  0  0  0  0  0  0  0  0  0
  -52.0231  -10.6106  -17.5248 N   0  0  0  0  0  0  0  0  0  0  0  0
  -52.0417   -9.6128  -18.4749 N   0  0  0  0  0  0  0  0  0  0  0  0
  -50.8224   -9.3557  -18.9240 N   0  0  0  0  0  0  0  0  0  0  0  0
  -44.1707  -10.3842  -18.9296 Cl  0  0  0  0  0  0  0  0  0  0  0  0
  -50.4218  -11.1089  -23.3546 N   0  0  0  0  0  0  0  0  0  0  0  0
  -51.1716  -11.2506  -24.5990 C   0  0  2  0  0  0  0  0  0  0  0  0
  -52.4472  -10.3955  -24.5538 C   0  0  0  0  0  0  0  0  0  0  0  0
  -53.2524  -10.5179  -23.6390 O   0  0  0  0  0  0  0  0  0  0  0  0
  -51.5740  -12.7013  -24.8295 C   0  0  0  0  0  0  0  0  0  0  0  0
  -52.1557  -12.9736  -26.1869 C   0  0  0  0  0  0  0  0  0  0  0  0
  -53.2300  -13.8552  -26.2939 C   0  0  0  0  0  0  0  0  0  0  0  0
  -51.6390  -12.3946  -27.3467 C   0  0  0  0  0  0  0  0  0  0  0  0
  -53.7892  -14.1375  -27.5360 C   0  0  0  0  0  0  0  0  0  0  0  0
  -52.1932  -12.6722  -28.5872 C   0  0  0  0  0  0  0  0  0  0  0  0
  -53.2729  -13.5547  -28.6802 C   0  0  0  0  0  0  0  0  0  0  0  0
  -52.5360   -9.5677  -25.6519 N   0  0  0  0  0  0  0  0  0  0  0  0
  -53.5309   -8.6262  -25.9074 C   0  0  0  0  0  0  0  0  0  0  0  0
  -53.4396   -7.9207  -27.0987 C   0  0  0  0  0  0  0  0  0  0  0  0
  -54.3972   -6.9586  -27.4320 C   0  0  0  0  0  0  0  0  0  0  0  0
  -55.4245   -6.6969  -26.5414 C   0  0  0  0  0  0  0  0  0  0  0  0
  -55.5236   -7.3968  -25.3475 C   0  0  0  0  0  0  0  0  0  0  0  0
  -54.5785   -8.3727  -25.0388 C   0  0  0  0  0  0  0  0  0  0  0  0
  -56.4289   -5.6297  -26.8692 C   0  0  0  0  0  0  0  0  0  0  0  0
  -56.6649   -5.2044  -28.1277 N   0  0  0  0  0  0  0  0  0  0  0  0
  -57.6116   -4.2447  -27.9874 N   0  0  0  0  0  0  0  0  0  0  0  0
  -57.9013   -4.0969  -26.6768 N   0  0  0  0  0  0  0  0  0  0  0  0
  -57.1822   -4.9714  -25.9501 N   0  0  0  0  0  0  0  0  0  0  0  0
  -48.1315   -9.0805  -21.9030 H   0  0  0  0  0  0  0  0  0  0  0  0
  -49.6691  -11.5377  -20.8770 H   0  0  0  0  0  0  0  0  0  0  0  0
  -46.2726  -10.7412  -20.8145 H   0  0  0  0  0  0  0  0  0  0  0  0
  -45.7804   -9.8863  -16.6363 H   0  0  0  0  0  0  0  0  0  0  0  0
  -48.2346   -9.8159  -16.3649 H   0  0  0  0  0  0  0  0  0  0  0  0
  -50.3621  -11.7069  -16.7396 H   0  0  0  0  0  0  0  0  0  0  0  0
  -50.5709  -11.7961  -22.6254 H   0  0  0  0  0  0  0  0  0  0  0  0
  -50.5208  -10.9100  -25.4113 H   0  0  0  0  0  0  0  0  0  0  0  0
  -52.3149  -12.9806  -24.0695 H   0  0  0  0  0  0  0  0  0  0  0  0
  -50.6959  -13.3446  -24.7004 H   0  0  0  0  0  0  0  0  0  0  0  0
  -53.6417  -14.3129  -25.3993 H   0  0  0  0  0  0  0  0  0  0  0  0
  -50.7994  -11.7083  -27.2961 H   0  0  0  0  0  0  0  0  0  0  0  0
  -54.6311  -14.8147  -27.6010 H   0  0  0  0  0  0  0  0  0  0  0  0
  -51.7926  -12.2087  -29.4791 H   0  0  0  0  0  0  0  0  0  0  0  0
  -53.7037  -13.7763  -29.6495 H   0  0  0  0  0  0  0  0  0  0  0  0
  -51.8007   -9.6389  -26.3427 H   0  0  0  0  0  0  0  0  0  0  0  0
  -52.6330   -8.1046  -27.7948 H   0  0  0  0  0  0  0  0  0  0  0  0
  -54.3164   -6.4027  -28.3630 H   0  0  0  0  0  0  0  0  0  0  0  0
  -56.3420   -7.1971  -24.6647 H   0  0  0  0  0  0  0  0  0  0  0  0
  -54.6869   -8.9090  -24.1085 H   0  0  0  0  0  0  0  0  0  0  0  0
  1  2  2  0  0  0  0
  1  3  1  0  0  0  0
  1 17  1  0  0  0  0
  3  4  2  0  0  0  0
  3 40  1  0  0  0  0
  4  5  1  0  0  0  0
  4 41  1  0  0  0  0
  5  6  2  0  0  0  0
  5 10  1  0  0  0  0
  6  7  1  0  0  0  0
  6 42  1  0  0  0  0
  7  8  2  0  0  0  0
  7 16  1  0  0  0  0
  8  9  1  0  0  0  0
  8 43  1  0  0  0  0
  9 10  2  0  0  0  0
  9 44  1  0  0  0  0
 10 11  1  0  0  0  0
 11 12  2  0  0  0  0
 11 15  1  0  0  0  0
 12 13  1  0  0  0  0
 12 45  1  0  0  0  0
 13 14  1  0  0  0  0
 14 15  2  0  0  0  0
 17 18  1  0  0  0  0
 17 46  1  0  0  0  0
 18 19  1  0  0  0  0
 18 21  1  0  0  0  0
 18 47  1  6  0  0  0
 19 20  2  0  0  0  0
 19 28  1  0  0  0  0
 21 22  1  0  0  0  0
 21 48  1  0  0  0  0
 21 49  1  0  0  0  0
 22 23  2  0  0  0  0
 22 24  1  0  0  0  0
 23 25  1  0  0  0  0
 23 50  1  0  0  0  0
 24 26  2  0  0  0  0
 24 51  1  0  0  0  0
 25 27  2  0  0  0  0
 25 52  1  0  0  0  0
 26 27  1  0  0  0  0
 26 53  1  0  0  0  0
 27 54  1  0  0  0  0
 28 29  1  0  0  0  0
 28 55  1  0  0  0  0
 29 30  2  0  0  0  0
 29 34  1  0  0  0  0
 30 31  1  0  0  0  0
 30 56  1  0  0  0  0
 31 32  2  0  0  0  0
 31 57  1  0  0  0  0
 32 33  1  0  0  0  0
 32 35  1  0  0  0  0
 33 34  2  0  0  0  0
 33 58  1  0  0  0  0
 34 59  1  0  0  0  0
 35 36  1  0  0  0  0
 35 39  2  0  0  0  0
 36 37  1  0  0  0  0
 37 38  2  0  0  0  0
 38 39  1  0  0  0  0
M  CHG  1  11   1
M  END
$$$$
