OTW
 OpenBabel04111918223D

 24 25  0  0  0  0  0  0  0  0999 V2000
   49.6744   23.0849   11.9237 C   0  0  0  0  0  0  0  0  0  0  0  0
   49.9103   21.6123   11.8745 C   0  0  0  0  0  0  0  0  0  0  0  0
   48.8216   20.7647   11.8226 C   0  0  0  0  0  0  0  0  0  0  0  0
   49.0026   19.3989   11.7731 C   0  0  0  0  0  0  0  0  0  0  0  0
   50.2253   18.8358   11.7758 N   0  0  0  0  0  0  0  0  0  0  0  0
   51.3002   19.6507   11.8281 C   0  0  0  0  0  0  0  0  0  0  0  0
   51.1965   21.0524   11.8780 C   0  0  0  0  0  0  0  0  0  0  0  0
   52.3504   21.8548   11.9304 C   0  0  0  0  0  0  0  0  0  0  0  0
   53.6156   21.2847   11.9347 C   0  0  0  0  0  0  0  0  0  0  0  0
   53.7148   19.9016   11.8852 C   0  0  0  0  0  0  0  0  0  0  0  0
   52.5698   19.1042   11.8332 C   0  0  0  0  0  0  0  0  0  0  0  0
   54.7555   22.0553   11.9862 N   0  0  0  0  0  0  0  0  0  0  0  0
   47.8811   18.5991   11.7193 N   0  0  0  0  0  0  0  0  0  0  0  0
   48.5995   23.2908   11.9098 H   0  0  0  0  0  0  0  0  0  0  0  0
   50.1266   23.5664   11.0522 H   0  0  0  0  0  0  0  0  0  0  0  0
   50.0912   23.5006   12.8452 H   0  0  0  0  0  0  0  0  0  0  0  0
   47.8168   21.1782   11.8204 H   0  0  0  0  0  0  0  0  0  0  0  0
   52.2556   22.9370   11.9680 H   0  0  0  0  0  0  0  0  0  0  0  0
   54.6916   19.4273   11.8865 H   0  0  0  0  0  0  0  0  0  0  0  0
   52.6778   18.0200   11.7952 H   0  0  0  0  0  0  0  0  0  0  0  0
   54.6998   23.0633   12.0231 H   0  0  0  0  0  0  0  0  0  0  0  0
   55.6619   21.6095   11.9878 H   0  0  0  0  0  0  0  0  0  0  0  0
   47.9991   17.5993   11.6821 H   0  0  0  0  0  0  0  0  0  0  0  0
   46.9678   19.0147   11.7158 H   0  0  0  0  0  0  0  0  0  0  0  0
  1  2  1  0  0  0  0
  1 14  1  0  0  0  0
  1 15  1  0  0  0  0
  1 16  1  0  0  0  0
  2  3  2  0  0  0  0
  2  7  1  0  0  0  0
  3  4  1  0  0  0  0
  3 17  1  0  0  0  0
  4  5  2  0  0  0  0
  4 13  1  0  0  0  0
  5  6  1  0  0  0  0
  6  7  2  0  0  0  0
  6 11  1  0  0  0  0
  7  8  1  0  0  0  0
  8  9  2  0  0  0  0
  8 18  1  0  0  0  0
  9 10  1  0  0  0  0
  9 12  1  0  0  0  0
 10 11  2  0  0  0  0
 10 19  1  0  0  0  0
 11 20  1  0  0  0  0
 12 21  1  0  0  0  0
 12 22  1  0  0  0  0
 13 23  1  0  0  0  0
 13 24  1  0  0  0  0
M  END
$$$$
