P43
 OpenBabel04111917373D

 54 57  0  0  0  0  0  0  0  0999 V2000
   -9.4192   53.1037   -7.0116 C   0  0  0  0  0  0  0  0  0  0  0  0
   -4.0767   62.0669   -3.6503 C   0  0  0  0  0  0  0  0  0  0  0  0
   -3.9778   60.6961   -3.4282 C   0  0  0  0  0  0  0  0  0  0  0  0
   -4.2737   59.7740   -4.4779 C   0  0  0  0  0  0  0  0  0  0  0  0
   -4.6685   60.2178   -5.7624 C   0  0  0  0  0  0  0  0  0  0  0  0
   -4.7722   61.5994   -5.9886 C   0  0  0  0  0  0  0  0  0  0  0  0
   -4.4659   62.5014   -4.9311 C   0  0  0  0  0  0  0  0  0  0  0  0
   -5.2392   62.1621   -7.3091 C   0  0  0  0  0  0  0  0  0  0  0  0
   -4.5756   61.5165   -8.4604 N   0  3  0  0  0  0  0  0  0  0  0  0
   -4.1720   58.2957   -4.1397 C   0  0  0  0  0  0  0  0  0  0  0  0
   -3.4285   57.4930   -5.2447 C   0  0  0  0  0  0  0  0  0  0  0  0
   -3.2839   56.0520   -4.7813 C   0  0  0  0  0  0  0  0  0  0  0  0
   -4.6584   55.5355   -4.4908 N   0  0  0  0  0  0  0  0  0  0  0  0
   -5.4175   56.2224   -3.4086 C   0  0  0  0  0  0  0  0  0  0  0  0
   -5.5384   57.7345   -3.6596 C   0  0  0  0  0  0  0  0  0  0  0  0
   -5.1538   54.5375   -5.4116 C   0  0  0  0  0  0  0  0  0  0  0  0
   -4.4891   54.1286   -6.3286 O   0  0  0  0  0  0  0  0  0  0  0  0
   -6.5472   54.0634   -5.1672 C   0  0  0  0  0  0  0  0  0  0  0  0
   -7.2913   53.8633   -6.3140 O   0  0  0  0  0  0  0  0  0  0  0  0
   -8.5094   53.3713   -5.9577 C   0  0  0  0  0  0  0  0  0  0  0  0
   -8.5874   53.2498   -4.5787 C   0  0  0  0  0  0  0  0  0  0  0  0
   -7.3255   53.6950   -4.0780 C   0  0  0  0  0  0  0  0  0  0  0  0
  -10.1881   52.8787   -7.9219 C   0  0  0  0  0  0  0  0  0  0  0  0
  -11.1684   52.5870   -8.9241 C   0  0  0  0  0  0  0  0  0  0  0  0
  -10.7612   52.3575  -10.3004 C   0  0  0  0  0  0  0  0  0  0  0  0
  -11.7157   52.0263  -11.2784 C   0  0  0  0  0  0  0  0  0  0  0  0
  -13.0692   51.9340  -10.8595 C   0  0  0  0  0  0  0  0  0  0  0  0
  -13.4712   52.1502   -9.4957 C   0  0  0  0  0  0  0  0  0  0  0  0
  -12.5237   52.4885   -8.5286 C   0  0  0  0  0  0  0  0  0  0  0  0
  -12.8880   52.7021   -7.2400 F   0  0  0  0  0  0  0  0  0  0  0  0
   -3.8607   62.7831   -2.8398 H   0  0  0  0  0  0  0  0  0  0  0  0
   -3.6624   60.3215   -2.4440 H   0  0  0  0  0  0  0  0  0  0  0  0
   -4.8731   59.4890   -6.5621 H   0  0  0  0  0  0  0  0  0  0  0  0
   -4.5216   63.5770   -5.1198 H   0  0  0  0  0  0  0  0  0  0  0  0
   -4.9937   63.2271   -7.3986 H   0  0  0  0  0  0  0  0  0  0  0  0
   -6.3129   62.0266   -7.4678 H   0  0  0  0  0  0  0  0  0  0  0  0
   -4.8887   61.9184   -9.3539 H   0  0  0  0  0  0  0  0  0  0  0  0
   -3.5559   61.6306   -8.3823 H   0  0  0  0  0  0  0  0  0  0  0  0
   -3.5028   58.2202   -3.2717 H   0  0  0  0  0  0  0  0  0  0  0  0
   -2.4354   57.9392   -5.4439 H   0  0  0  0  0  0  0  0  0  0  0  0
   -3.9814   57.5105   -6.1950 H   0  0  0  0  0  0  0  0  0  0  0  0
   -2.6816   56.0083   -3.8595 H   0  0  0  0  0  0  0  0  0  0  0  0
   -2.7410   55.4552   -5.5365 H   0  0  0  0  0  0  0  0  0  0  0  0
   -4.9015   56.0594   -2.4447 H   0  0  0  0  0  0  0  0  0  0  0  0
   -6.4249   55.8031   -3.2781 H   0  0  0  0  0  0  0  0  0  0  0  0
   -6.3397   57.9304   -4.3931 H   0  0  0  0  0  0  0  0  0  0  0  0
   -5.8631   58.2648   -2.7326 H   0  0  0  0  0  0  0  0  0  0  0  0
   -9.4557   52.8819   -4.0426 H   0  0  0  0  0  0  0  0  0  0  0  0
   -7.0105   53.7336   -3.0311 H   0  0  0  0  0  0  0  0  0  0  0  0
   -9.6951   52.4365  -10.5807 H   0  0  0  0  0  0  0  0  0  0  0  0
  -11.4483   51.8345  -12.3371 H   0  0  0  0  0  0  0  0  0  0  0  0
  -13.8370   51.6910  -11.6069 H   0  0  0  0  0  0  0  0  0  0  0  0
  -14.5256   52.0363   -9.2141 H   0  0  0  0  0  0  0  0  0  0  0  0
   -4.7888   60.5111   -8.4671 H   0  0  0  0  0  0  0  0  0  0  0  0
  1 20  1  0  0  0  0
  1 23  3  0  0  0  0
  2  3  2  0  0  0  0
  2  7  1  0  0  0  0
  2 31  1  0  0  0  0
  3  4  1  0  0  0  0
  3 32  1  0  0  0  0
  4  5  2  0  0  0  0
  4 10  1  0  0  0  0
  5  6  1  0  0  0  0
  5 33  1  0  0  0  0
  6  7  2  0  0  0  0
  6  8  1  0  0  0  0
  7 34  1  0  0  0  0
  8  9  1  0  0  0  0
  8 35  1  0  0  0  0
  8 36  1  0  0  0  0
  9 37  1  0  0  0  0
  9 38  1  0  0  0  0
  9 54  1  0  0  0  0
 10 11  1  0  0  0  0
 10 15  1  0  0  0  0
 10 39  1  0  0  0  0
 11 12  1  0  0  0  0
 11 40  1  0  0  0  0
 11 41  1  0  0  0  0
 12 13  1  0  0  0  0
 12 42  1  0  0  0  0
 12 43  1  0  0  0  0
 13 14  1  0  0  0  0
 13 16  1  0  0  0  0
 14 15  1  0  0  0  0
 14 44  1  0  0  0  0
 14 45  1  0  0  0  0
 15 46  1  0  0  0  0
 15 47  1  0  0  0  0
 16 17  2  0  0  0  0
 16 18  1  0  0  0  0
 18 19  1  0  0  0  0
 18 22  2  0  0  0  0
 19 20  1  0  0  0  0
 20 21  2  0  0  0  0
 21 22  1  0  0  0  0
 21 48  1  0  0  0  0
 22 49  1  0  0  0  0
 23 24  1  0  0  0  0
 24 25  2  0  0  0  0
 24 29  1  0  0  0  0
 25 26  1  0  0  0  0
 25 50  1  0  0  0  0
 26 27  2  0  0  0  0
 26 51  1  0  0  0  0
 27 28  1  0  0  0  0
 27 52  1  0  0  0  0
 28 29  2  0  0  0  0
 28 53  1  0  0  0  0
 29 30  1  0  0  0  0
M  CHG  1   9   1
M  END
$$$$
