P96
 OpenBabel04111917423D

 64 66  0  0  1  0  0  0  0  0999 V2000
   90.8813   91.8166  -50.1311 C   0  0  0  0  0  0  0  0  0  0  0  0
   91.0139   89.9825  -48.5031 N   0  0  0  0  0  0  0  0  0  0  0  0
   91.5864   93.4392  -45.2882 C   0  0  0  0  0  0  0  0  0  0  0  0
   90.8127   95.7188  -44.9638 C   0  0  0  0  0  0  0  0  0  0  0  0
   90.6748   98.2437  -44.9041 N   0  3  2  0  0  0  0  0  0  0  0  0
   90.9403   96.7023  -42.7949 O   0  0  0  0  0  0  0  0  0  0  0  0
   91.9047   93.3371  -43.9363 C   0  0  0  0  0  0  0  0  0  0  0  0
   90.1774   96.9508  -45.5400 C   0  0  0  0  0  0  0  0  0  0  0  0
   91.9112  102.3828  -44.1811 N   0  3  0  0  0  0  0  0  0  0  0  0
   89.6345   99.3031  -44.9599 C   0  0  0  0  0  0  0  0  0  0  0  0
   91.0271   94.6115  -45.7975 C   0  0  0  0  0  0  0  0  0  0  0  0
   91.8452   92.3496  -46.1671 C   0  0  0  0  0  0  0  0  0  0  0  0
   91.6812   94.4216  -43.0873 C   0  0  0  0  0  0  0  0  0  0  0  0
   92.0607   91.4524  -46.9400 C   0  0  0  0  0  0  0  0  0  0  0  0
   92.2745   90.3600  -47.9010 C   0  0  0  0  0  0  0  0  0  0  0  0
   90.3555   90.6867  -49.4947 C   0  0  0  0  0  0  0  0  0  0  0  0
   91.1380   95.6035  -43.6026 C   0  0  0  0  0  0  0  0  0  0  0  0
   89.0352   90.3274  -49.8016 C   0  0  0  0  0  0  0  0  0  0  0  0
   90.1231  100.5318  -44.2136 C   0  0  0  0  0  0  0  0  0  0  0  0
   88.2700   91.0611  -50.7130 C   0  0  0  0  0  0  0  0  0  0  0  0
   91.4409  101.0381  -44.8091 C   0  0  2  0  0  0  0  0  0  0  0  0
   90.0997  103.9494  -44.9265 C   0  0  0  0  0  0  0  0  0  0  0  0
   93.0142  102.3109  -43.1229 C   0  0  0  0  0  0  0  0  0  0  0  0
   93.7022  103.6584  -42.9480 C   0  0  0  0  0  0  0  0  0  0  0  0
   92.4953   99.9234  -44.7178 C   0  0  0  0  0  0  0  0  0  0  0  0
   92.0291   98.6435  -45.4101 C   0  0  0  0  0  0  0  0  0  0  0  0
   88.8175   92.1735  -51.3421 C   0  0  0  0  0  0  0  0  0  0  0  0
   90.1267   92.5476  -51.0565 C   0  0  0  0  0  0  0  0  0  0  0  0
   92.1890   94.2599  -41.0719 I   0  0  0  0  0  0  0  0  0  0  0  0
   90.7709  103.3120  -43.7270 C   0  0  0  0  0  0  0  0  0  0  0  0
   91.9000   92.1383  -49.9401 H   0  0  0  0  0  0  0  0  0  0  0  0
   90.7227   89.0210  -48.3630 H   0  0  0  0  0  0  0  0  0  0  0  0
   91.1311   96.3960  -41.8787 H   0  0  0  0  0  0  0  0  0  0  0  0
   92.3232   92.4094  -43.5493 H   0  0  0  0  0  0  0  0  0  0  0  0
   89.0956   96.8931  -45.3748 H   0  0  0  0  0  0  0  0  0  0  0  0
   90.3602   97.0460  -46.6166 H   0  0  0  0  0  0  0  0  0  0  0  0
   88.7286   98.9143  -44.4823 H   0  0  0  0  0  0  0  0  0  0  0  0
   89.4303   99.5225  -46.0133 H   0  0  0  0  0  0  0  0  0  0  0  0
   90.7621   94.6507  -46.8572 H   0  0  0  0  0  0  0  0  0  0  0  0
   93.0211   90.6360  -48.6530 H   0  0  0  0  0  0  0  0  0  0  0  0
   92.6803   89.4930  -47.3672 H   0  0  0  0  0  0  0  0  0  0  0  0
   88.5792   89.4686  -49.3138 H   0  0  0  0  0  0  0  0  0  0  0  0
   90.2537  100.3021  -43.1481 H   0  0  0  0  0  0  0  0  0  0  0  0
   89.3225  101.2700  -44.3003 H   0  0  0  0  0  0  0  0  0  0  0  0
   87.2477   90.7596  -50.9265 H   0  0  0  0  0  0  0  0  0  0  0  0
   91.2819  101.2810  -45.8677 H   0  0  0  0  0  0  0  0  0  0  0  0
   89.2632  104.5706  -44.5902 H   0  0  0  0  0  0  0  0  0  0  0  0
   89.7090  103.2122  -45.6326 H   0  0  0  0  0  0  0  0  0  0  0  0
   90.8028  104.5973  -45.4598 H   0  0  0  0  0  0  0  0  0  0  0  0
   93.7775  101.6178  -43.4825 H   0  0  0  0  0  0  0  0  0  0  0  0
   92.5668  101.9293  -42.2016 H   0  0  0  0  0  0  0  0  0  0  0  0
   94.5276  103.5613  -42.2365 H   0  0  0  0  0  0  0  0  0  0  0  0
   93.0421  104.4334  -42.5543 H   0  0  0  0  0  0  0  0  0  0  0  0
   94.1147  104.0144  -43.8981 H   0  0  0  0  0  0  0  0  0  0  0  0
   92.7023   99.6816  -43.6662 H   0  0  0  0  0  0  0  0  0  0  0  0
   93.4389  100.2407  -45.1766 H   0  0  0  0  0  0  0  0  0  0  0  0
   91.9562   98.7840  -46.4925 H   0  0  0  0  0  0  0  0  0  0  0  0
   92.7233   97.8235  -45.1937 H   0  0  0  0  0  0  0  0  0  0  0  0
   88.2274   92.7397  -52.0575 H   0  0  0  0  0  0  0  0  0  0  0  0
   90.5670   93.4045  -51.5585 H   0  0  0  0  0  0  0  0  0  0  0  0
   91.1768  104.0991  -43.0949 H   0  0  0  0  0  0  0  0  0  0  0  0
   90.0873  102.7407  -43.0942 H   0  0  0  0  0  0  0  0  0  0  0  0
   90.7756   97.9606  -43.9080 H   0  0  0  0  0  0  0  0  0  0  0  0
   92.3671  102.8912  -44.9559 H   0  0  0  0  0  0  0  0  0  0  0  0
  1 16  2  0  0  0  0
  1 28  1  0  0  0  0
  1 31  1  0  0  0  0
  2 15  1  0  0  0  0
  2 16  1  0  0  0  0
  2 32  1  0  0  0  0
  3  7  2  0  0  0  0
  3 11  1  0  0  0  0
  3 12  1  0  0  0  0
  4  8  1  0  0  0  0
  4 11  2  0  0  0  0
  4 17  1  0  0  0  0
  5  8  1  0  0  0  0
  5 10  1  0  0  0  0
  5 26  1  0  0  0  0
  5 63  1  1  0  0  0
  6 17  1  0  0  0  0
  6 33  1  0  0  0  0
  7 13  1  0  0  0  0
  7 34  1  0  0  0  0
  8 35  1  0  0  0  0
  8 36  1  0  0  0  0
  9 21  1  0  0  0  0
  9 23  1  0  0  0  0
  9 30  1  0  0  0  0
  9 64  1  0  0  0  0
 10 19  1  0  0  0  0
 10 37  1  0  0  0  0
 10 38  1  0  0  0  0
 11 39  1  0  0  0  0
 12 14  3  0  0  0  0
 13 17  2  0  0  0  0
 13 29  1  0  0  0  0
 14 15  1  0  0  0  0
 15 40  1  0  0  0  0
 15 41  1  0  0  0  0
 16 18  1  0  0  0  0
 18 20  2  0  0  0  0
 18 42  1  0  0  0  0
 19 21  1  0  0  0  0
 19 43  1  0  0  0  0
 19 44  1  0  0  0  0
 20 27  1  0  0  0  0
 20 45  1  0  0  0  0
 21 25  1  0  0  0  0
 21 46  1  6  0  0  0
 22 30  1  0  0  0  0
 22 47  1  0  0  0  0
 22 48  1  0  0  0  0
 22 49  1  0  0  0  0
 23 24  1  0  0  0  0
 23 50  1  0  0  0  0
 23 51  1  0  0  0  0
 24 52  1  0  0  0  0
 24 53  1  0  0  0  0
 24 54  1  0  0  0  0
 25 26  1  0  0  0  0
 25 55  1  0  0  0  0
 25 56  1  0  0  0  0
 26 57  1  0  0  0  0
 26 58  1  0  0  0  0
 27 28  2  0  0  0  0
 27 59  1  0  0  0  0
 28 60  1  0  0  0  0
 30 61  1  0  0  0  0
 30 62  1  0  0  0  0
M  CHG  2   5   1   9   1
M  END
$$$$
