PBD
 OpenBabel04111918523D

 42 43  0  0  0  0  0  0  0  0999 V2000
  -34.7089   -5.8151   44.4052 C   0  0  0  0  0  0  0  0  0  0  0  0
  -31.6947   -8.4737   40.6635 C   0  0  0  0  0  0  0  0  0  0  0  0
  -30.5224   -2.0034   37.6304 S   0  0  0  0  0  0  0  0  0  0  0  0
  -26.9403   -0.9071   45.7897 C   0  0  0  0  0  0  0  0  0  0  0  0
  -33.0489   -3.6737   41.1993 C   0  0  0  0  0  0  0  0  0  0  0  0
  -33.5537   -4.3567   42.3112 C   0  0  0  0  0  0  0  0  0  0  0  0
  -26.8660   -1.1942   44.4458 C   0  0  0  0  0  0  0  0  0  0  0  0
  -28.3365    0.4037   44.8433 C   0  0  0  0  0  0  0  0  0  0  0  0
  -32.2641   -5.7597   40.2743 C   0  0  0  0  0  0  0  0  0  0  0  0
  -28.9899   -1.4841   42.0579 C   0  0  0  0  0  0  0  0  0  0  0  0
  -29.3443   -1.4571   40.5763 C   0  0  0  0  0  0  0  0  0  0  0  0
  -28.1043   -0.3093   42.4498 C   0  0  0  0  0  0  0  0  0  0  0  0
  -27.8533    0.0889   46.0255 N   0  0  0  0  0  0  0  0  0  0  0  0
  -30.4165   -2.3987   40.3047 N   0  0  0  0  0  0  0  0  0  0  0  0
  -31.8785   -3.7155   39.0725 N   0  0  0  0  0  0  0  0  0  0  0  0
  -33.8220   -6.4697   43.5055 O   0  0  0  0  0  0  0  0  0  0  0  0
  -32.5180   -7.7929   41.6047 O   0  0  0  0  0  0  0  0  0  0  0  0
  -30.9605   -2.6966   39.0817 C   0  0  0  0  0  0  0  0  0  0  0  0
  -32.4088   -4.3789   40.1884 C   0  0  0  0  0  0  0  0  0  0  0  0
  -33.3821   -5.7404   42.4282 C   0  0  0  0  0  0  0  0  0  0  0  0
  -32.7069   -6.4464   41.4095 C   0  0  0  0  0  0  0  0  0  0  0  0
  -27.7711   -0.3540   43.8599 N   0  3  0  0  0  0  0  0  0  0  0  0
  -35.0221   -6.5375   45.1651 H   0  0  0  0  0  0  0  0  0  0  0  0
  -35.6090   -5.4655   43.8863 H   0  0  0  0  0  0  0  0  0  0  0  0
  -34.2098   -4.9900   44.9249 H   0  0  0  0  0  0  0  0  0  0  0  0
  -31.6099   -9.5178   40.9792 H   0  0  0  0  0  0  0  0  0  0  0  0
  -30.6871   -8.0523   40.6381 H   0  0  0  0  0  0  0  0  0  0  0  0
  -32.1514   -8.4684   39.6679 H   0  0  0  0  0  0  0  0  0  0  0  0
  -26.3886   -1.3680   46.5991 H   0  0  0  0  0  0  0  0  0  0  0  0
  -33.1970   -2.5981   41.1222 H   0  0  0  0  0  0  0  0  0  0  0  0
  -34.0630   -3.7717   43.0689 H   0  0  0  0  0  0  0  0  0  0  0  0
  -26.2804   -1.9098   43.8888 H   0  0  0  0  0  0  0  0  0  0  0  0
  -29.0922    1.1551   44.6550 H   0  0  0  0  0  0  0  0  0  0  0  0
  -31.7389   -6.2713   39.4729 H   0  0  0  0  0  0  0  0  0  0  0  0
  -28.4916   -2.4348   42.2917 H   0  0  0  0  0  0  0  0  0  0  0  0
  -29.9059   -1.4690   42.6637 H   0  0  0  0  0  0  0  0  0  0  0  0
  -28.4726   -1.7309   39.9707 H   0  0  0  0  0  0  0  0  0  0  0  0
  -29.6853   -0.4647   40.2673 H   0  0  0  0  0  0  0  0  0  0  0  0
  -28.6123    0.6418   42.2559 H   0  0  0  0  0  0  0  0  0  0  0  0
  -27.1625   -0.3108   41.8899 H   0  0  0  0  0  0  0  0  0  0  0  0
  -30.6098   -3.0707   41.0375 H   0  0  0  0  0  0  0  0  0  0  0  0
  -31.9776   -4.1666   38.1677 H   0  0  0  0  0  0  0  0  0  0  0  0
  1 16  1  0  0  0  0
  1 23  1  0  0  0  0
  1 24  1  0  0  0  0
  1 25  1  0  0  0  0
  2 17  1  0  0  0  0
  2 26  1  0  0  0  0
  2 27  1  0  0  0  0
  2 28  1  0  0  0  0
  3 18  2  0  0  0  0
  4  7  2  0  0  0  0
  4 13  1  0  0  0  0
  4 29  1  0  0  0  0
  5  6  2  0  0  0  0
  5 19  1  0  0  0  0
  5 30  1  0  0  0  0
  6 20  1  0  0  0  0
  6 31  1  0  0  0  0
  7 22  1  0  0  0  0
  7 32  1  0  0  0  0
  8 13  1  0  0  0  0
  8 22  2  0  0  0  0
  8 33  1  0  0  0  0
  9 19  2  0  0  0  0
  9 21  1  0  0  0  0
  9 34  1  0  0  0  0
 10 11  1  0  0  0  0
 10 12  1  0  0  0  0
 10 35  1  0  0  0  0
 10 36  1  0  0  0  0
 11 14  1  0  0  0  0
 11 37  1  0  0  0  0
 11 38  1  0  0  0  0
 12 22  1  0  0  0  0
 12 39  1  0  0  0  0
 12 40  1  0  0  0  0
 14 18  1  0  0  0  0
 14 41  1  0  0  0  0
 15 18  1  0  0  0  0
 15 19  1  0  0  0  0
 15 42  1  0  0  0  0
 16 20  1  0  0  0  0
 17 21  1  0  0  0  0
 20 21  2  0  0  0  0
M  CHG  1  22   1
M  END
$$$$
