PBD
 OpenBabel04111918523D

 43 44  0  0  0  0  0  0  0  0999 V2000
  -56.0816   17.3056  -33.2837 C   0  0  0  0  0  0  0  0  0  0  0  0
  -53.7457   18.3870  -38.1467 C   0  0  0  0  0  0  0  0  0  0  0  0
  -53.5471   25.2920  -36.0745 S   0  0  0  0  0  0  0  0  0  0  0  0
  -48.0206   22.0692  -30.2512 C   0  0  0  0  0  0  0  0  0  0  0  0
  -55.3006   21.2986  -34.3425 C   0  0  0  0  0  0  0  0  0  0  0  0
  -55.5674   19.9778  -33.9752 C   0  0  0  0  0  0  0  0  0  0  0  0
  -48.4382   22.8056  -31.3359 C   0  0  0  0  0  0  0  0  0  0  0  0
  -49.7422   23.1495  -29.5880 C   0  0  0  0  0  0  0  0  0  0  0  0
  -54.4653   20.5366  -36.4690 C   0  0  0  0  0  0  0  0  0  0  0  0
  -51.3410   23.5314  -32.5509 C   0  0  0  0  0  0  0  0  0  0  0  0
  -52.2967   24.3985  -33.3583 C   0  0  0  0  0  0  0  0  0  0  0  0
  -50.3885   24.3489  -31.6892 C   0  0  0  0  0  0  0  0  0  0  0  0
  -48.8429   22.2814  -29.1760 N   0  0  0  0  0  0  0  0  0  0  0  0
  -53.1764   23.4951  -34.1331 N   0  0  0  0  0  0  0  0  0  0  0  0
  -54.4549   22.8515  -35.9888 N   0  0  0  0  0  0  0  0  0  0  0  0
  -55.4790   17.6026  -34.5405 O   0  0  0  0  0  0  0  0  0  0  0  0
  -54.4153   18.1349  -36.9142 O   0  0  0  0  0  0  0  0  0  0  0  0
  -53.7528   23.7431  -35.3039 C   0  0  0  0  0  0  0  0  0  0  0  0
  -54.7262   21.5825  -35.5813 C   0  0  0  0  0  0  0  0  0  0  0  0
  -55.2619   18.9225  -34.8420 C   0  0  0  0  0  0  0  0  0  0  0  0
  -54.7003   19.2053  -36.1041 C   0  0  0  0  0  0  0  0  0  0  0  0
  -49.5402   23.4826  -30.8951 N   0  3  0  0  0  0  0  0  0  0  0  0
  -56.1906   16.2210  -33.1996 H   0  0  0  0  0  0  0  0  0  0  0  0
  -57.0821   17.7476  -33.2140 H   0  0  0  0  0  0  0  0  0  0  0  0
  -55.4474   17.6412  -32.4552 H   0  0  0  0  0  0  0  0  0  0  0  0
  -53.5805   17.4311  -38.6523 H   0  0  0  0  0  0  0  0  0  0  0  0
  -52.7661   18.8475  -37.9749 H   0  0  0  0  0  0  0  0  0  0  0  0
  -54.3582   19.0092  -38.8084 H   0  0  0  0  0  0  0  0  0  0  0  0
  -54.0879   25.0506  -37.2759 H   0  0  0  0  0  0  0  0  0  0  0  0
  -47.1753   21.3946  -30.1857 H   0  0  0  0  0  0  0  0  0  0  0  0
  -55.5984   22.0937  -33.6634 H   0  0  0  0  0  0  0  0  0  0  0  0
  -56.0289   19.8016  -33.0074 H   0  0  0  0  0  0  0  0  0  0  0  0
  -48.0504   22.8883  -32.3422 H   0  0  0  0  0  0  0  0  0  0  0  0
  -50.5458   23.5486  -28.9852 H   0  0  0  0  0  0  0  0  0  0  0  0
  -54.0378   20.7748  -37.4367 H   0  0  0  0  0  0  0  0  0  0  0  0
  -50.7681   22.8959  -33.2415 H   0  0  0  0  0  0  0  0  0  0  0  0
  -51.9176   22.8419  -31.9194 H   0  0  0  0  0  0  0  0  0  0  0  0
  -51.7230   25.0442  -34.0299 H   0  0  0  0  0  0  0  0  0  0  0  0
  -52.9241   25.0136  -32.7060 H   0  0  0  0  0  0  0  0  0  0  0  0
  -50.9361   25.0034  -31.0036 H   0  0  0  0  0  0  0  0  0  0  0  0
  -49.7316   24.9759  -32.3059 H   0  0  0  0  0  0  0  0  0  0  0  0
  -54.7049   23.1036  -36.9368 H   0  0  0  0  0  0  0  0  0  0  0  0
  -53.3082   22.5707  -33.7432 H   0  0  0  0  0  0  0  0  0  0  0  0
  1 16  1  0  0  0  0
  1 23  1  0  0  0  0
  1 24  1  0  0  0  0
  1 25  1  0  0  0  0
  2 17  1  0  0  0  0
  2 26  1  0  0  0  0
  2 27  1  0  0  0  0
  2 28  1  0  0  0  0
  3 18  1  0  0  0  0
  3 29  1  0  0  0  0
  4  7  2  0  0  0  0
  4 13  1  0  0  0  0
  4 30  1  0  0  0  0
  5  6  2  0  0  0  0
  5 19  1  0  0  0  0
  5 31  1  0  0  0  0
  6 20  1  0  0  0  0
  6 32  1  0  0  0  0
  7 22  1  0  0  0  0
  7 33  1  0  0  0  0
  8 13  1  0  0  0  0
  8 22  2  0  0  0  0
  8 34  1  0  0  0  0
  9 19  2  0  0  0  0
  9 21  1  0  0  0  0
  9 35  1  0  0  0  0
 10 11  1  0  0  0  0
 10 12  1  0  0  0  0
 10 36  1  0  0  0  0
 10 37  1  0  0  0  0
 11 14  1  0  0  0  0
 11 38  1  0  0  0  0
 11 39  1  0  0  0  0
 12 22  1  0  0  0  0
 12 40  1  0  0  0  0
 12 41  1  0  0  0  0
 14 18  2  0  0  0  0
 14 43  1  0  0  0  0
 15 18  1  0  0  0  0
 15 19  1  0  0  0  0
 15 42  1  0  0  0  0
 16 20  1  0  0  0  0
 17 21  1  0  0  0  0
 20 21  2  0  0  0  0
M  CHG  1  22   1
M  END
$$$$
