PBD
 OpenBabel04111920243D

 43 44  0  0  0  0  0  0  0  0999 V2000
  -22.7327   17.9529   -0.2290 C   0  0  0  0  0  0  0  0  0  0  0  0
  -25.5195   17.8169   -4.9446 C   0  0  0  0  0  0  0  0  0  0  0  0
  -21.9252   23.5397   -6.9375 S   0  0  0  0  0  0  0  0  0  0  0  0
  -15.5679   17.8588   -6.7723 C   0  0  0  0  0  0  0  0  0  0  0  0
  -22.5320   21.2666   -2.8442 C   0  0  0  0  0  0  0  0  0  0  0  0
  -22.6340   20.2186   -1.9257 C   0  0  0  0  0  0  0  0  0  0  0  0
  -16.0595   18.8899   -7.5382 C   0  0  0  0  0  0  0  0  0  0  0  0
  -16.8673   18.9604   -5.4884 C   0  0  0  0  0  0  0  0  0  0  0  0
  -23.9960   20.0916   -4.3563 C   0  0  0  0  0  0  0  0  0  0  0  0
  -19.1012   20.7328   -6.6018 C   0  0  0  0  0  0  0  0  0  0  0  0
  -19.4265   21.9981   -5.8216 C   0  0  0  0  0  0  0  0  0  0  0  0
  -17.6438   20.7611   -7.0598 C   0  0  0  0  0  0  0  0  0  0  0  0
  -16.0843   17.9080   -5.5030 N   0  0  0  0  0  0  0  0  0  0  0  0
  -20.7622   21.8354   -5.2405 N   0  0  0  0  0  0  0  0  0  0  0  0
  -23.0572   22.1430   -5.0358 N   0  0  0  0  0  0  0  0  0  0  0  0
  -23.5654   18.0232   -1.3817 O   0  0  0  0  0  0  0  0  0  0  0  0
  -24.8211   17.8935   -3.7056 O   0  0  0  0  0  0  0  0  0  0  0  0
  -21.8978   22.4205   -5.6046 C   0  0  0  0  0  0  0  0  0  0  0  0
  -23.1989   21.1951   -4.0709 C   0  0  0  0  0  0  0  0  0  0  0  0
  -23.4080   19.0922   -2.2238 C   0  0  0  0  0  0  0  0  0  0  0  0
  -24.0971   19.0310   -3.4527 C   0  0  0  0  0  0  0  0  0  0  0  0
  -16.9022   19.5699   -6.7101 N   0  3  0  0  0  0  0  0  0  0  0  0
  -22.9899   17.0420    0.3200 H   0  0  0  0  0  0  0  0  0  0  0  0
  -22.9050   18.7998    0.4433 H   0  0  0  0  0  0  0  0  0  0  0  0
  -21.6778   17.8867   -0.5161 H   0  0  0  0  0  0  0  0  0  0  0  0
  -26.0633   16.8702   -4.9769 H   0  0  0  0  0  0  0  0  0  0  0  0
  -24.8202   17.8298   -5.7892 H   0  0  0  0  0  0  0  0  0  0  0  0
  -26.2520   18.6274   -5.0327 H   0  0  0  0  0  0  0  0  0  0  0  0
  -23.2407   23.7451   -7.0783 H   0  0  0  0  0  0  0  0  0  0  0  0
  -14.8633   17.0905   -7.0627 H   0  0  0  0  0  0  0  0  0  0  0  0
  -21.9380   22.1392   -2.5801 H   0  0  0  0  0  0  0  0  0  0  0  0
  -22.1074   20.3115   -0.9796 H   0  0  0  0  0  0  0  0  0  0  0  0
  -15.8733   19.1789   -8.5637 H   0  0  0  0  0  0  0  0  0  0  0  0
  -17.4259   19.3009   -4.6265 H   0  0  0  0  0  0  0  0  0  0  0  0
  -24.4851   20.0497   -5.3232 H   0  0  0  0  0  0  0  0  0  0  0  0
  -19.7653   20.6553   -7.4717 H   0  0  0  0  0  0  0  0  0  0  0  0
  -19.3300   19.8551   -5.9847 H   0  0  0  0  0  0  0  0  0  0  0  0
  -19.3553   22.8862   -6.4522 H   0  0  0  0  0  0  0  0  0  0  0  0
  -18.7292   22.1286   -4.9882 H   0  0  0  0  0  0  0  0  0  0  0  0
  -17.0892   21.6019   -6.6250 H   0  0  0  0  0  0  0  0  0  0  0  0
  -17.6089   20.8728   -8.1499 H   0  0  0  0  0  0  0  0  0  0  0  0
  -20.8078   21.1434   -4.5057 H   0  0  0  0  0  0  0  0  0  0  0  0
  -23.8933   22.5233   -5.4695 H   0  0  0  0  0  0  0  0  0  0  0  0
  1 16  1  0  0  0  0
  1 23  1  0  0  0  0
  1 24  1  0  0  0  0
  1 25  1  0  0  0  0
  2 17  1  0  0  0  0
  2 26  1  0  0  0  0
  2 27  1  0  0  0  0
  2 28  1  0  0  0  0
  3 18  1  0  0  0  0
  3 29  1  0  0  0  0
  4  7  2  0  0  0  0
  4 13  1  0  0  0  0
  4 30  1  0  0  0  0
  5  6  2  0  0  0  0
  5 19  1  0  0  0  0
  5 31  1  0  0  0  0
  6 20  1  0  0  0  0
  6 32  1  0  0  0  0
  7 22  1  0  0  0  0
  7 33  1  0  0  0  0
  8 13  1  0  0  0  0
  8 22  2  0  0  0  0
  8 34  1  0  0  0  0
  9 19  2  0  0  0  0
  9 21  1  0  0  0  0
  9 35  1  0  0  0  0
 10 11  1  0  0  0  0
 10 12  1  0  0  0  0
 10 36  1  0  0  0  0
 10 37  1  0  0  0  0
 11 14  1  0  0  0  0
 11 38  1  0  0  0  0
 11 39  1  0  0  0  0
 12 22  1  0  0  0  0
 12 40  1  0  0  0  0
 12 41  1  0  0  0  0
 14 18  1  0  0  0  0
 14 42  1  0  0  0  0
 15 18  2  0  0  0  0
 15 19  1  0  0  0  0
 15 43  1  0  0  0  0
 16 20  1  0  0  0  0
 17 21  1  0  0  0  0
 20 21  2  0  0  0  0
M  CHG  1  22   1
M  END
$$$$
