PCI
 OpenBabel04111921453D

 13 13  0  0  0  0  0  0  0  0999 V2000
   48.5860   79.9782   76.1817 O   0  0  0  0  0  0  0  0  0  0  0  0
   49.3321   80.2307   77.3131 C   0  0  0  0  0  0  0  0  0  0  0  0
   50.2569   81.2716   77.2763 C   0  0  0  0  0  0  0  0  0  0  0  0
   50.4589   82.2325   75.8465 Cl  0  0  0  0  0  0  0  0  0  0  0  0
   51.0192   81.5426   78.4247 C   0  0  0  0  0  0  0  0  0  0  0  0
   52.1660   82.8594   78.4188 Cl  0  0  0  0  0  0  0  0  0  0  0  0
   50.8680   80.7664   79.5831 C   0  0  0  0  0  0  0  0  0  0  0  0
   51.8465   81.1169   80.9786 Cl  0  0  0  0  0  0  0  0  0  0  0  0
   49.9346   79.7156   79.6027 C   0  0  0  0  0  0  0  0  0  0  0  0
   49.7116   78.7570   81.0364 Cl  0  0  0  0  0  0  0  0  0  0  0  0
   49.1759   79.4449   78.4659 C   0  0  0  0  0  0  0  0  0  0  0  0
   48.0197   78.1496   78.4441 Cl  0  0  0  0  0  0  0  0  0  0  0  0
   47.9932   79.2111   76.3723 H   0  0  0  0  0  0  0  0  0  0  0  0
  1  2  1  0  0  0  0
  1 13  1  0  0  0  0
  2  3  2  0  0  0  0
  2 11  1  0  0  0  0
  3  4  1  0  0  0  0
  3  5  1  0  0  0  0
  5  6  1  0  0  0  0
  5  7  2  0  0  0  0
  7  8  1  0  0  0  0
  7  9  1  0  0  0  0
  9 10  1  0  0  0  0
  9 11  2  0  0  0  0
 11 12  1  0  0  0  0
M  END
$$$$
