PGA
 OpenBabel04111918083D

 11 10  0  0  0  0  0  0  0  0999 V2000
    1.3969  -19.8000  -23.6164 P   0  0  0  0  0  0  0  0  0  0  0  0
    1.9670  -18.2847  -23.8906 O   0  0  0  0  0  0  0  0  0  0  0  0
    2.4127  -20.4692  -22.6920 O   0  0  0  0  0  0  0  0  0  0  0  0
    0.0418  -19.5730  -22.9570 O   0  0  0  0  0  0  0  0  0  0  0  0
    1.2966  -20.4565  -24.9847 O   0  0  0  0  0  0  0  0  0  0  0  0
    3.3545  -17.9830  -23.6746 C   0  0  0  0  0  0  0  0  0  0  0  0
    3.7058  -16.5594  -24.1859 C   0  0  0  0  0  0  0  0  0  0  0  0
    4.2774  -15.7828  -23.3513 O   0  0  0  0  0  0  0  0  0  0  0  0
    3.5020  -16.2966  -25.4168 O   0  0  0  0  0  0  0  0  0  0  0  0
    3.9883  -18.7142  -24.1917 H   0  0  0  0  0  0  0  0  0  0  0  0
    3.5660  -18.0468  -22.5989 H   0  0  0  0  0  0  0  0  0  0  0  0
  1  2  1  0  0  0  0
  1  3  2  0  0  0  0
  1  4  1  0  0  0  0
  1  5  1  0  0  0  0
  2  6  1  0  0  0  0
  6  7  1  0  0  0  0
  6 10  1  0  0  0  0
  6 11  1  0  0  0  0
  7  8  2  0  0  0  0
  7  9  1  0  0  0  0
M  END
$$$$
