PHE
 OpenBabel04111919403D

 23 23  0  0  1  0  0  0  0  0999 V2000
    5.1426   -7.9070  -16.9376 N   0  3  0  0  0  0  0  0  0  0  0  0
    6.3573   -7.6429  -16.0544 C   0  0  2  0  0  0  0  0  0  0  0  0
    7.6440   -8.2618  -16.6593 C   0  0  0  0  0  0  0  0  0  0  0  0
    7.4520   -8.5903  -17.8725 O   0  0  0  0  0  0  0  0  0  0  0  0
    6.0823   -8.1851  -14.6545 C   0  0  0  0  0  0  0  0  0  0  0  0
    5.1113   -7.3078  -13.8962 C   0  0  0  0  0  0  0  0  0  0  0  0
    5.5535   -6.0912  -13.3558 C   0  0  0  0  0  0  0  0  0  0  0  0
    3.7793   -7.6952  -13.7132 C   0  0  0  0  0  0  0  0  0  0  0  0
    4.6742   -5.2782  -12.6407 C   0  0  0  0  0  0  0  0  0  0  0  0
    2.8998   -6.8731  -13.0008 C   0  0  0  0  0  0  0  0  0  0  0  0
    3.3524   -5.6679  -12.4667 C   0  0  0  0  0  0  0  0  0  0  0  0
    8.6363   -8.3745  -15.9091 O   0  0  0  0  0  0  0  0  0  0  0  0
    4.2816   -7.4866  -16.5921 H   0  0  0  0  0  0  0  0  0  0  0  0
    5.4097   -7.5654  -17.8720 H   0  0  0  0  0  0  0  0  0  0  0  0
    6.4837   -6.5543  -16.0632 H   0  0  0  0  0  0  0  0  0  0  0  0
    6.9996   -8.2578  -14.0571 H   0  0  0  0  0  0  0  0  0  0  0  0
    5.6907   -9.2090  -14.7142 H   0  0  0  0  0  0  0  0  0  0  0  0
    6.5901   -5.7812  -13.4673 H   0  0  0  0  0  0  0  0  0  0  0  0
    3.4152   -8.6443  -14.0962 H   0  0  0  0  0  0  0  0  0  0  0  0
    5.0331   -4.3487  -12.2062 H   0  0  0  0  0  0  0  0  0  0  0  0
    1.8758   -7.1844  -12.8477 H   0  0  0  0  0  0  0  0  0  0  0  0
    2.6718   -5.0381  -11.8947 H   0  0  0  0  0  0  0  0  0  0  0  0
    5.0745   -8.9219  -17.0737 H   0  0  0  0  0  0  0  0  0  0  0  0
  1  2  1  0  0  0  0
  1 13  1  0  0  0  0
  1 14  1  0  0  0  0
  1 23  1  0  0  0  0
  2  3  1  0  0  0  0
  2  5  1  0  0  0  0
  2 15  1  1  0  0  0
  3  4  2  0  0  0  0
  3 12  1  0  0  0  0
  5  6  1  0  0  0  0
  5 16  1  0  0  0  0
  5 17  1  0  0  0  0
  6  7  2  0  0  0  0
  6  8  1  0  0  0  0
  7  9  1  0  0  0  0
  7 18  1  0  0  0  0
  8 10  2  0  0  0  0
  8 19  1  0  0  0  0
  9 11  2  0  0  0  0
  9 20  1  0  0  0  0
 10 11  1  0  0  0  0
 10 21  1  0  0  0  0
 11 22  1  0  0  0  0
M  CHG  1   1   1
M  END
$$$$
