PHE
 OpenBabel04111921243D

 33 33  0  0  1  0  0  0  0  0999 V2000
   14.0739   -9.1722   12.4384 N   0  3  0  0  0  0  0  0  0  0  0  0
   13.3729   -7.8641   12.2879 C   0  0  2  0  0  0  0  0  0  0  0  0
   12.6467   -7.8353   10.9584 C   0  0  0  0  0  0  0  0  0  0  0  0
   13.0463   -8.4946   10.0198 O   0  0  0  0  0  0  0  0  0  0  0  0
   14.3867   -6.7486   12.3870 C   0  0  0  0  0  0  0  0  0  0  0  0
   11.4665   -7.1344   11.0026 N   0  0  0  0  0  0  0  0  0  0  0  0
   10.7575   -6.8258    9.7531 C   0  0  2  0  0  0  0  0  0  0  0  0
   11.5172   -5.8510    8.8032 C   0  0  0  0  0  0  0  0  0  0  0  0
   11.3762   -6.0808    7.5697 O   0  0  0  0  0  0  0  0  0  0  0  0
    9.4175   -6.1677   10.0730 C   0  0  0  0  0  0  0  0  0  0  0  0
    8.4542   -7.1112   10.7584 C   0  0  0  0  0  0  0  0  0  0  0  0
    8.1991   -8.3798   10.2312 C   0  0  0  0  0  0  0  0  0  0  0  0
    7.7718   -6.7026   11.9111 C   0  0  0  0  0  0  0  0  0  0  0  0
    7.2961   -9.2380   10.8465 C   0  0  0  0  0  0  0  0  0  0  0  0
    6.8640   -7.5594   12.5213 C   0  0  0  0  0  0  0  0  0  0  0  0
    6.6280   -8.8238   11.9961 C   0  0  0  0  0  0  0  0  0  0  0  0
   12.2137   -4.9757    9.4063 O   0  0  0  0  0  0  0  0  0  0  0  0
   14.6001   -9.2285   13.3183 H   0  0  0  0  0  0  0  0  0  0  0  0
   13.3882   -9.9360   12.3822 H   0  0  0  0  0  0  0  0  0  0  0  0
   12.6624   -7.8123   13.1193 H   0  0  0  0  0  0  0  0  0  0  0  0
   13.8853   -5.7792   12.2908 H   0  0  0  0  0  0  0  0  0  0  0  0
   15.1375   -6.8212   11.5946 H   0  0  0  0  0  0  0  0  0  0  0  0
   14.8995   -6.7731   13.3544 H   0  0  0  0  0  0  0  0  0  0  0  0
   11.1970   -6.5937   11.8184 H   0  0  0  0  0  0  0  0  0  0  0  0
   10.6207   -7.7754    9.2336 H   0  0  0  0  0  0  0  0  0  0  0  0
    8.9340   -5.7975    9.1643 H   0  0  0  0  0  0  0  0  0  0  0  0
    9.5880   -5.3101   10.7381 H   0  0  0  0  0  0  0  0  0  0  0  0
    8.7091   -8.7120    9.3249 H   0  0  0  0  0  0  0  0  0  0  0  0
    7.9455   -5.7133   12.3262 H   0  0  0  0  0  0  0  0  0  0  0  0
    7.1121  -10.2172   10.4203 H   0  0  0  0  0  0  0  0  0  0  0  0
    6.3295   -7.2291   13.4160 H   0  0  0  0  0  0  0  0  0  0  0  0
    5.9153   -9.4909   12.4730 H   0  0  0  0  0  0  0  0  0  0  0  0
   14.7054   -9.2997   11.6306 H   0  0  0  0  0  0  0  0  0  0  0  0
  1  2  1  0  0  0  0
  1 18  1  0  0  0  0
  1 19  1  0  0  0  0
  1 33  1  0  0  0  0
  2  3  1  0  0  0  0
  2  5  1  0  0  0  0
  2 20  1  1  0  0  0
  3  4  2  0  0  0  0
  3  6  1  0  0  0  0
  5 21  1  0  0  0  0
  5 22  1  0  0  0  0
  5 23  1  0  0  0  0
  6  7  1  0  0  0  0
  6 24  1  0  0  0  0
  7  8  1  0  0  0  0
  7 10  1  0  0  0  0
  7 25  1  6  0  0  0
  8  9  2  0  0  0  0
  8 17  1  0  0  0  0
 10 11  1  0  0  0  0
 10 26  1  0  0  0  0
 10 27  1  0  0  0  0
 11 12  2  0  0  0  0
 11 13  1  0  0  0  0
 12 14  1  0  0  0  0
 12 28  1  0  0  0  0
 13 15  2  0  0  0  0
 13 29  1  0  0  0  0
 14 16  2  0  0  0  0
 14 30  1  0  0  0  0
 15 16  1  0  0  0  0
 15 31  1  0  0  0  0
 16 32  1  0  0  0  0
M  CHG  1   1   1
M  END
$$$$
