PHE
 OpenBabel04111919413D

 23 23  0  0  1  0  0  0  0  0999 V2000
   -7.5524    5.4468   16.9861 N   0  3  0  0  0  0  0  0  0  0  0  0
   -7.1302    6.5907   16.0670 C   0  0  2  0  0  0  0  0  0  0  0  0
   -7.4840    7.9930   16.6671 C   0  0  0  0  0  0  0  0  0  0  0  0
   -7.4046    8.9735   15.9048 O   0  0  0  0  0  0  0  0  0  0  0  0
   -7.7552    6.3728   14.6891 C   0  0  0  0  0  0  0  0  0  0  0  0
   -6.9482    5.4311   13.8131 C   0  0  0  0  0  0  0  0  0  0  0  0
   -5.8389    5.9041   13.0927 C   0  0  0  0  0  0  0  0  0  0  0  0
   -7.2898    4.0791   13.6964 C   0  0  0  0  0  0  0  0  0  0  0  0
   -5.0929    5.0475   12.2775 C   0  0  0  0  0  0  0  0  0  0  0  0
   -6.5456    3.2249   12.8759 C   0  0  0  0  0  0  0  0  0  0  0  0
   -5.4484    3.7068   12.1649 C   0  0  0  0  0  0  0  0  0  0  0  0
   -7.8243    7.8901   17.8907 O   0  0  0  0  0  0  0  0  0  0  0  0
   -7.3087    4.5328   16.6157 H   0  0  0  0  0  0  0  0  0  0  0  0
   -7.1059    5.6280   17.8990 H   0  0  0  0  0  0  0  0  0  0  0  0
   -6.0401    6.5184   16.0114 H   0  0  0  0  0  0  0  0  0  0  0  0
   -7.8502    7.3236   14.1552 H   0  0  0  0  0  0  0  0  0  0  0  0
   -8.7761    5.9764   14.7875 H   0  0  0  0  0  0  0  0  0  0  0  0
   -5.5501    6.9520   13.1530 H   0  0  0  0  0  0  0  0  0  0  0  0
   -8.1483    3.6805   14.2299 H   0  0  0  0  0  0  0  0  0  0  0  0
   -4.2351    5.4274   11.7248 H   0  0  0  0  0  0  0  0  0  0  0  0
   -6.8268    2.1793   12.7811 H   0  0  0  0  0  0  0  0  0  0  0  0
   -4.8760    3.0403   11.5229 H   0  0  0  0  0  0  0  0  0  0  0  0
   -8.5561    5.5494   17.1789 H   0  0  0  0  0  0  0  0  0  0  0  0
  1  2  1  0  0  0  0
  1 13  1  0  0  0  0
  1 14  1  0  0  0  0
  1 23  1  0  0  0  0
  2  3  1  0  0  0  0
  2  5  1  0  0  0  0
  2 15  1  6  0  0  0
  3  4  2  0  0  0  0
  3 12  1  0  0  0  0
  5  6  1  0  0  0  0
  5 16  1  0  0  0  0
  5 17  1  0  0  0  0
  6  7  2  0  0  0  0
  6  8  1  0  0  0  0
  7  9  1  0  0  0  0
  7 18  1  0  0  0  0
  8 10  2  0  0  0  0
  8 19  1  0  0  0  0
  9 11  2  0  0  0  0
  9 20  1  0  0  0  0
 10 11  1  0  0  0  0
 10 21  1  0  0  0  0
 11 22  1  0  0  0  0
M  CHG  1   1   1
M  END
$$$$
