PHE
 OpenBabel04111919323D

 23 23  0  0  1  0  0  0  0  0999 V2000
    3.4106   49.3595   -7.7432 N   0  3  0  0  0  0  0  0  0  0  0  0
    2.9049   50.7780   -7.8516 C   0  0  2  0  0  0  0  0  0  0  0  0
    1.4799   50.9410   -7.2836 C   0  0  0  0  0  0  0  0  0  0  0  0
    0.8912   49.8259   -7.1124 O   0  0  0  0  0  0  0  0  0  0  0  0
    2.8312   51.2019   -9.3147 C   0  0  0  0  0  0  0  0  0  0  0  0
    4.1742   51.2004  -10.0051 C   0  0  0  0  0  0  0  0  0  0  0  0
    5.1223   52.1842   -9.7131 C   0  0  0  0  0  0  0  0  0  0  0  0
    4.4850   50.2051  -10.9396 C   0  0  0  0  0  0  0  0  0  0  0  0
    6.3692   52.1631  -10.3456 C   0  0  0  0  0  0  0  0  0  0  0  0
    5.7285   50.1828  -11.5763 C   0  0  0  0  0  0  0  0  0  0  0  0
    6.6829   51.1514  -11.2618 C   0  0  0  0  0  0  0  0  0  0  0  0
    1.1475   52.1072   -7.0405 O   0  0  0  0  0  0  0  0  0  0  0  0
    4.3380   49.2668   -8.1364 H   0  0  0  0  0  0  0  0  0  0  0  0
    3.3859   49.0965   -6.7533 H   0  0  0  0  0  0  0  0  0  0  0  0
    3.6131   51.4144   -7.3085 H   0  0  0  0  0  0  0  0  0  0  0  0
    2.4171   52.2170   -9.3782 H   0  0  0  0  0  0  0  0  0  0  0  0
    2.1543   50.5290   -9.8592 H   0  0  0  0  0  0  0  0  0  0  0  0
    4.8853   52.9659   -8.9938 H   0  0  0  0  0  0  0  0  0  0  0  0
    3.7485   49.4419  -11.1751 H   0  0  0  0  0  0  0  0  0  0  0  0
    7.0932   52.9425  -10.1238 H   0  0  0  0  0  0  0  0  0  0  0  0
    5.9441   49.4153  -12.3161 H   0  0  0  0  0  0  0  0  0  0  0  0
    7.6649   51.1188  -11.7284 H   0  0  0  0  0  0  0  0  0  0  0  0
    2.7306   48.7520   -8.2159 H   0  0  0  0  0  0  0  0  0  0  0  0
  1  2  1  0  0  0  0
  1 13  1  0  0  0  0
  1 14  1  0  0  0  0
  1 23  1  0  0  0  0
  2  3  1  0  0  0  0
  2  5  1  0  0  0  0
  2 15  1  1  0  0  0
  3  4  2  0  0  0  0
  3 12  1  0  0  0  0
  5  6  1  0  0  0  0
  5 16  1  0  0  0  0
  5 17  1  0  0  0  0
  6  7  2  0  0  0  0
  6  8  1  0  0  0  0
  7  9  1  0  0  0  0
  7 18  1  0  0  0  0
  8 10  2  0  0  0  0
  8 19  1  0  0  0  0
  9 11  2  0  0  0  0
  9 20  1  0  0  0  0
 10 11  1  0  0  0  0
 10 21  1  0  0  0  0
 11 22  1  0  0  0  0
M  CHG  1   1   1
M  END
$$$$
