PLM
 OpenBabel04111921513D

 47 46  0  0  0  0  0  0  0  0999 V2000
    5.9214  -16.6081   -1.6002 C   0  0  0  0  0  0  0  0  0  0  0  0
    4.8758  -16.4121   -0.8805 O   0  0  0  0  0  0  0  0  0  0  0  0
    6.9838  -15.9723   -1.5651 O   0  0  0  0  0  0  0  0  0  0  0  0
    5.7857  -17.7477   -2.6200 C   0  0  0  0  0  0  0  0  0  0  0  0
    7.0712  -18.1612   -3.3128 C   0  0  0  0  0  0  0  0  0  0  0  0
    6.8497  -19.2795   -4.3267 C   0  0  0  0  0  0  0  0  0  0  0  0
    8.1714  -19.7965   -4.8829 C   0  0  0  0  0  0  0  0  0  0  0  0
    8.0225  -20.7785   -6.0448 C   0  0  0  0  0  0  0  0  0  0  0  0
    7.1161  -21.9795   -5.7732 C   0  0  0  0  0  0  0  0  0  0  0  0
    7.5949  -22.8584   -4.6151 C   0  0  0  0  0  0  0  0  0  0  0  0
    6.5660  -23.9208   -4.2032 C   0  0  0  0  0  0  0  0  0  0  0  0
    6.9636  -24.8135   -3.0073 C   0  0  0  0  0  0  0  0  0  0  0  0
    7.4593  -24.1068   -1.7158 C   0  0  0  0  0  0  0  0  0  0  0  0
    6.5771  -23.0248   -1.0438 C   0  0  0  0  0  0  0  0  0  0  0  0
    7.2692  -22.1963    0.0940 C   0  0  0  0  0  0  0  0  0  0  0  0
    8.4323  -21.4842   -0.0533 C   0  0  0  0  0  0  0  0  0  0  0  0
    9.0142  -20.7448    1.1499 C   0  0  0  0  0  0  0  0  0  0  0  0
   10.4352  -20.3003    0.8614 C   0  0  0  0  0  0  0  0  0  0  0  0
    5.0751  -17.4250   -3.3897 H   0  0  0  0  0  0  0  0  0  0  0  0
    5.3857  -18.6250   -2.0994 H   0  0  0  0  0  0  0  0  0  0  0  0
    7.7797  -18.5059   -2.5552 H   0  0  0  0  0  0  0  0  0  0  0  0
    7.4821  -17.2923   -3.8351 H   0  0  0  0  0  0  0  0  0  0  0  0
    6.2407  -18.8957   -5.1506 H   0  0  0  0  0  0  0  0  0  0  0  0
    6.3248  -20.1039   -3.8343 H   0  0  0  0  0  0  0  0  0  0  0  0
    8.7169  -20.2967   -4.0761 H   0  0  0  0  0  0  0  0  0  0  0  0
    8.7605  -18.9414   -5.2351 H   0  0  0  0  0  0  0  0  0  0  0  0
    9.0217  -21.1507   -6.3036 H   0  0  0  0  0  0  0  0  0  0  0  0
    7.6131  -20.2320   -6.9043 H   0  0  0  0  0  0  0  0  0  0  0  0
    7.0803  -22.5897   -6.6843 H   0  0  0  0  0  0  0  0  0  0  0  0
    6.1122  -21.6109   -5.5481 H   0  0  0  0  0  0  0  0  0  0  0  0
    7.7940  -22.2124   -3.7587 H   0  0  0  0  0  0  0  0  0  0  0  0
    8.5208  -23.3530   -4.9245 H   0  0  0  0  0  0  0  0  0  0  0  0
    6.3823  -24.5756   -5.0714 H   0  0  0  0  0  0  0  0  0  0  0  0
    5.6282  -23.4164   -3.9435 H   0  0  0  0  0  0  0  0  0  0  0  0
    7.7721  -25.4889   -3.3487 H   0  0  0  0  0  0  0  0  0  0  0  0
    6.0941  -25.4395   -2.7480 H   0  0  0  0  0  0  0  0  0  0  0  0
    8.4130  -23.6367   -1.9601 H   0  0  0  0  0  0  0  0  0  0  0  0
    7.6284  -24.8952   -0.9677 H   0  0  0  0  0  0  0  0  0  0  0  0
    5.6818  -23.5354   -0.6373 H   0  0  0  0  0  0  0  0  0  0  0  0
    6.2480  -22.3284   -1.8236 H   0  0  0  0  0  0  0  0  0  0  0  0
    6.7666  -22.1680    1.0882 H   0  0  0  0  0  0  0  0  0  0  0  0
    8.9706  -21.4306   -1.0236 H   0  0  0  0  0  0  0  0  0  0  0  0
    9.0243  -21.4111    2.0284 H   0  0  0  0  0  0  0  0  0  0  0  0
    8.4062  -19.8596    1.3923 H   0  0  0  0  0  0  0  0  0  0  0  0
   10.8551  -19.7785    1.7291 H   0  0  0  0  0  0  0  0  0  0  0  0
   10.4328  -19.6246   -0.0011 H   0  0  0  0  0  0  0  0  0  0  0  0
   11.0500  -21.1778    0.6334 H   0  0  0  0  0  0  0  0  0  0  0  0
  1  2  2  0  0  0  0
  1  3  1  0  0  0  0
  1  4  1  0  0  0  0
  4  5  1  0  0  0  0
  4 19  1  0  0  0  0
  4 20  1  0  0  0  0
  5  6  1  0  0  0  0
  5 21  1  0  0  0  0
  5 22  1  0  0  0  0
  6  7  1  0  0  0  0
  6 23  1  0  0  0  0
  6 24  1  0  0  0  0
  7  8  1  0  0  0  0
  7 25  1  0  0  0  0
  7 26  1  0  0  0  0
  8  9  1  0  0  0  0
  8 27  1  0  0  0  0
  8 28  1  0  0  0  0
  9 10  1  0  0  0  0
  9 29  1  0  0  0  0
  9 30  1  0  0  0  0
 10 11  1  0  0  0  0
 10 31  1  0  0  0  0
 10 32  1  0  0  0  0
 11 12  1  0  0  0  0
 11 33  1  0  0  0  0
 11 34  1  0  0  0  0
 12 13  1  0  0  0  0
 12 35  1  0  0  0  0
 12 36  1  0  0  0  0
 13 14  1  0  0  0  0
 13 37  1  0  0  0  0
 13 38  1  0  0  0  0
 14 15  1  0  0  0  0
 14 39  1  0  0  0  0
 14 40  1  0  0  0  0
 15 16  2  0  0  0  0
 15 41  1  0  0  0  0
 16 17  1  0  0  0  0
 16 42  1  0  0  0  0
 17 18  1  0  0  0  0
 17 43  1  0  0  0  0
 17 44  1  0  0  0  0
 18 45  1  0  0  0  0
 18 46  1  0  0  0  0
 18 47  1  0  0  0  0
M  END
$$$$
