PP2
 OpenBabel04111918533D

 37 39  0  0  0  0  0  0  0  0999 V2000
  -21.3429  -27.2677  -17.9588 C   0  0  0  0  0  0  0  0  0  0  0  0
  -21.4743  -25.9610  -18.2262 N   0  0  0  0  0  0  0  0  0  0  0  0
  -21.7968  -25.7313  -19.4982 C   0  0  0  0  0  0  0  0  0  0  0  0
  -21.9919  -26.6503  -20.4510 N   0  0  0  0  0  0  0  0  0  0  0  0
  -21.8574  -27.9534  -20.1422 C   0  0  0  0  0  0  0  0  0  0  0  0
  -21.5202  -28.3361  -18.8475 C   0  0  0  0  0  0  0  0  0  0  0  0
  -21.2566  -29.5001  -18.0323 C   0  0  0  0  0  0  0  0  0  0  0  0
  -20.9471  -29.1514  -16.7770 N   0  0  0  0  0  0  0  0  0  0  0  0
  -20.9872  -27.8175  -16.7505 N   0  3  0  0  0  0  0  0  0  0  0  0
  -21.2883  -30.9418  -18.3455 C   0  0  0  0  0  0  0  0  0  0  0  0
  -21.5819  -31.4391  -19.5954 C   0  0  0  0  0  0  0  0  0  0  0  0
  -21.6352  -32.7819  -19.9529 C   0  0  0  0  0  0  0  0  0  0  0  0
  -21.3657  -33.6970  -18.9735 C   0  0  0  0  0  0  0  0  0  0  0  0
  -21.0579  -33.2735  -17.6818 C   0  0  0  0  0  0  0  0  0  0  0  0
  -21.0216  -31.8911  -17.3681 C   0  0  0  0  0  0  0  0  0  0  0  0
  -20.6767  -27.1080  -15.5058 C   0  0  0  0  0  0  0  0  0  0  0  0
  -21.9329  -26.3692  -15.0204 C   0  0  0  0  0  0  0  0  0  0  0  0
  -20.2295  -28.1078  -14.4185 C   0  0  0  0  0  0  0  0  0  0  0  0
  -19.5292  -26.1159  -15.7461 C   0  0  0  0  0  0  0  0  0  0  0  0
  -22.1147  -28.7239  -21.2552 N   0  0  0  0  0  0  0  0  0  0  0  0
  -21.4168  -35.3648  -19.3734 Cl  0  0  0  0  0  0  0  0  0  0  0  0
  -21.9176  -24.7044  -19.8129 H   0  0  0  0  0  0  0  0  0  0  0  0
  -21.7966  -30.8293  -20.4099 H   0  0  0  0  0  0  0  0  0  0  0  0
  -21.8813  -33.0452  -20.9721 H   0  0  0  0  0  0  0  0  0  0  0  0
  -20.8440  -33.9842  -16.9069 H   0  0  0  0  0  0  0  0  0  0  0  0
  -20.7816  -31.5829  -16.3556 H   0  0  0  0  0  0  0  0  0  0  0  0
  -21.7334  -25.8133  -14.0994 H   0  0  0  0  0  0  0  0  0  0  0  0
  -22.7513  -27.0731  -14.8283 H   0  0  0  0  0  0  0  0  0  0  0  0
  -22.2915  -25.6522  -15.7659 H   0  0  0  0  0  0  0  0  0  0  0  0
  -19.9910  -27.6070  -13.4780 H   0  0  0  0  0  0  0  0  0  0  0  0
  -19.3364  -28.6602  -14.7425 H   0  0  0  0  0  0  0  0  0  0  0  0
  -21.0130  -28.8502  -14.2137 H   0  0  0  0  0  0  0  0  0  0  0  0
  -19.2889  -25.5617  -14.8345 H   0  0  0  0  0  0  0  0  0  0  0  0
  -19.7794  -25.3796  -16.5144 H   0  0  0  0  0  0  0  0  0  0  0  0
  -18.6284  -26.6423  -16.0820 H   0  0  0  0  0  0  0  0  0  0  0  0
  -22.0634  -29.6965  -21.3703 H   0  0  0  0  0  0  0  0  0  0  0  0
  -22.3486  -28.2316  -22.0920 H   0  0  0  0  0  0  0  0  0  0  0  0
  1  2  1  0  0  0  0
  1  6  1  0  0  0  0
  1  9  2  0  0  0  0
  2  3  2  0  0  0  0
  3  4  1  0  0  0  0
  3 22  1  0  0  0  0
  4  5  2  0  0  0  0
  5  6  1  0  0  0  0
  5 20  1  0  0  0  0
  6  7  2  0  0  0  0
  7  8  1  0  0  0  0
  7 10  1  0  0  0  0
  8  9  1  0  0  0  0
  9 16  1  0  0  0  0
 10 11  2  0  0  0  0
 10 15  1  0  0  0  0
 11 12  1  0  0  0  0
 11 23  1  0  0  0  0
 12 13  2  0  0  0  0
 12 24  1  0  0  0  0
 13 14  1  0  0  0  0
 13 21  1  0  0  0  0
 14 15  2  0  0  0  0
 14 25  1  0  0  0  0
 15 26  1  0  0  0  0
 16 17  1  0  0  0  0
 16 18  1  0  0  0  0
 16 19  1  0  0  0  0
 17 27  1  0  0  0  0
 17 28  1  0  0  0  0
 17 29  1  0  0  0  0
 18 30  1  0  0  0  0
 18 31  1  0  0  0  0
 18 32  1  0  0  0  0
 19 33  1  0  0  0  0
 19 34  1  0  0  0  0
 19 35  1  0  0  0  0
 20 36  1  0  0  0  0
 20 37  1  0  0  0  0
M  CHG  1   9   1
M  END
$$$$
