PW1
 OpenBabel04111918023D

 29 30  0  0  0  0  0  0  0  0999 V2000
    1.6767   16.2537  -41.6541 C   0  0  0  0  0  0  0  0  0  0  0  0
    2.6315   17.2283  -41.3604 C   0  0  0  0  0  0  0  0  0  0  0  0
    3.9702   16.8697  -41.2071 C   0  0  0  0  0  0  0  0  0  0  0  0
    4.8692   17.8301  -40.9532 F   0  0  0  0  0  0  0  0  0  0  0  0
    4.3722   15.5451  -41.3295 C   0  0  0  0  0  0  0  0  0  0  0  0
    3.4178   14.5789  -41.6496 C   0  0  0  0  0  0  0  0  0  0  0  0
    2.0639   14.9150  -41.8056 C   0  0  0  0  0  0  0  0  0  0  0  0
    1.0461   13.8591  -42.1086 C   0  0  0  0  0  0  0  0  0  0  0  0
    1.2513   13.2179  -43.4237 N   0  3  0  0  0  0  0  0  0  0  0  0
    8.2267   13.8430  -39.0420 C   0  0  0  0  0  0  0  0  0  0  0  0
    7.5846   14.4156  -40.1426 C   0  0  0  0  0  0  0  0  0  0  0  0
    6.2115   14.6850  -40.1080 C   0  0  0  0  0  0  0  0  0  0  0  0
    5.4877   14.3880  -38.9496 C   0  0  0  0  0  0  0  0  0  0  0  0
    5.7046   15.2371  -41.2654 O   0  0  0  0  0  0  0  0  0  0  0  0
    6.1315   13.8111  -37.8481 C   0  0  0  0  0  0  0  0  0  0  0  0
    3.7813   13.3017  -41.8434 F   0  0  0  0  0  0  0  0  0  0  0  0
    7.4991   13.5372  -37.8960 C   0  0  0  0  0  0  0  0  0  0  0  0
    0.6351   16.5571  -41.7564 H   0  0  0  0  0  0  0  0  0  0  0  0
    2.3421   18.2707  -41.2474 H   0  0  0  0  0  0  0  0  0  0  0  0
    0.0380   14.2877  -42.1370 H   0  0  0  0  0  0  0  0  0  0  0  0
    1.0608   13.0721  -41.3493 H   0  0  0  0  0  0  0  0  0  0  0  0
    0.5355   12.5069  -43.6124 H   0  0  0  0  0  0  0  0  0  0  0  0
    1.2313   13.9044  -44.1860 H   0  0  0  0  0  0  0  0  0  0  0  0
    9.2945   13.6399  -39.0796 H   0  0  0  0  0  0  0  0  0  0  0  0
    8.1647   14.6576  -41.0300 H   0  0  0  0  0  0  0  0  0  0  0  0
    4.4276   14.5972  -38.8654 H   0  0  0  0  0  0  0  0  0  0  0  0
    5.5708   13.5779  -36.9472 H   0  0  0  0  0  0  0  0  0  0  0  0
    7.9976   13.0943  -37.0368 H   0  0  0  0  0  0  0  0  0  0  0  0
    2.1699   12.7483  -43.4526 H   0  0  0  0  0  0  0  0  0  0  0  0
  1  2  2  0  0  0  0
  1  7  1  0  0  0  0
  1 18  1  0  0  0  0
  2  3  1  0  0  0  0
  2 19  1  0  0  0  0
  3  4  1  0  0  0  0
  3  5  2  0  0  0  0
  5  6  1  0  0  0  0
  5 14  1  0  0  0  0
  6  7  2  0  0  0  0
  6 16  1  0  0  0  0
  7  8  1  0  0  0  0
  8  9  1  0  0  0  0
  8 20  1  0  0  0  0
  8 21  1  0  0  0  0
  9 22  1  0  0  0  0
  9 23  1  0  0  0  0
  9 29  1  0  0  0  0
 10 11  2  0  0  0  0
 10 17  1  0  0  0  0
 10 24  1  0  0  0  0
 11 12  1  0  0  0  0
 11 25  1  0  0  0  0
 12 13  2  0  0  0  0
 12 14  1  0  0  0  0
 13 15  1  0  0  0  0
 13 26  1  0  0  0  0
 15 17  2  0  0  0  0
 15 27  1  0  0  0  0
 17 28  1  0  0  0  0
M  CHG  1   9   1
M  END
$$$$
