PZZ
 OpenBabel04111921243D

 38 39  0  0  1  0  0  0  0  0999 V2000
  -21.9233    6.6674    8.1368 C   0  0  0  0  0  0  0  0  0  0  0  0
  -21.7137    7.6851    7.2066 C   0  0  1  0  0  0  0  0  0  0  0  0
  -21.7474    5.4307    7.4743 N   0  3  0  0  0  0  0  0  0  0  0  0
  -21.1052    7.6399    4.7132 C   0  0  0  0  0  0  0  0  0  0  0  0
  -20.8113    6.8089    3.6469 C   0  0  0  0  0  0  0  0  0  0  0  0
  -20.8428    5.4269    3.7848 C   0  0  0  0  0  0  0  0  0  0  0  0
  -21.1465    4.7765    5.0070 C   0  0  2  0  0  0  0  0  0  0  0  0
  -21.4093    7.0502    5.9560 C   0  0  1  0  0  0  0  0  0  0  0  0
  -21.4339    5.6471    6.1209 C   0  0  2  0  0  0  0  0  0  0  0  0
  -21.7941    9.1818    7.2739 C   0  0  0  0  0  0  0  0  0  0  0  0
  -21.4909    9.9256    8.5380 N   0  3  0  0  0  0  0  0  0  0  0  0
  -21.5795   11.3818    8.2022 C   0  0  0  0  0  0  0  0  0  0  0  0
  -22.4001    9.6317    9.6845 C   0  0  0  0  0  0  0  0  0  0  0  0
  -21.0911    3.2396    5.0495 C   0  0  0  0  0  0  0  0  0  0  0  0
  -20.9730    2.5042    3.6959 C   0  0  0  0  0  0  0  0  0  0  0  0
  -19.5991    1.8519    3.4465 C   0  0  0  0  0  0  0  0  0  0  0  0
  -19.1574    0.9548    4.4648 O   0  0  0  0  0  0  0  0  0  0  0  0
  -22.1814    6.7190    9.1788 H   0  0  0  0  0  0  0  0  0  0  0  0
  -21.8230    4.5301    7.8856 H   0  0  0  0  0  0  0  0  0  0  0  0
  -21.0881    8.7256    4.5748 H   0  0  0  0  0  0  0  0  0  0  0  0
  -20.5482    7.2410    2.6836 H   0  0  0  0  0  0  0  0  0  0  0  0
  -20.6102    4.8590    2.8854 H   0  0  0  0  0  0  0  0  0  0  0  0
  -22.7983    9.5106    6.9733 H   0  0  0  0  0  0  0  0  0  0  0  0
  -21.0768    9.6012    6.5403 H   0  0  0  0  0  0  0  0  0  0  0  0
  -21.3668   11.9524    9.1021 H   0  0  0  0  0  0  0  0  0  0  0  0
  -22.5949   11.5781    7.8457 H   0  0  0  0  0  0  0  0  0  0  0  0
  -20.8510   11.5997    7.4195 H   0  0  0  0  0  0  0  0  0  0  0  0
  -22.3238    8.5830    9.9492 H   0  0  0  0  0  0  0  0  0  0  0  0
  -23.4211    9.8850    9.3943 H   0  0  0  0  0  0  0  0  0  0  0  0
  -22.0854   10.2449   10.5351 H   0  0  0  0  0  0  0  0  0  0  0  0
  -22.0091    2.8943    5.5365 H   0  0  0  0  0  0  0  0  0  0  0  0
  -20.2322    2.9543    5.6620 H   0  0  0  0  0  0  0  0  0  0  0  0
  -21.1747    3.1909    2.8695 H   0  0  0  0  0  0  0  0  0  0  0  0
  -21.7533    1.7372    3.6336 H   0  0  0  0  0  0  0  0  0  0  0  0
  -18.8590    2.6504    3.3478 H   0  0  0  0  0  0  0  0  0  0  0  0
  -19.6590    1.2951    2.5048 H   0  0  0  0  0  0  0  0  0  0  0  0
  -18.2847    0.5885    4.2266 H   0  0  0  0  0  0  0  0  0  0  0  0
  -20.5286    9.7001    8.8081 H   0  0  0  0  0  0  0  0  0  0  0  0
  1  2  1  0  0  0  0
  1  3  1  0  0  0  0
  1 18  1  0  0  0  0
  2  8  1  0  0  0  0
  2 10  1  6  0  0  0
  3 19  1  0  0  0  0
  4  5  1  0  0  0  0
  4 20  1  0  0  0  0
  5  6  1  0  0  0  0
  5 21  1  0  0  0  0
  6  7  1  0  0  0  0
  6 22  1  0  0  0  0
  7  9  1  0  0  0  0
  7 14  1  1  0  0  0
  8  4  1  1  0  0  0
  8  9  1  0  0  0  0
  9  3  1  1  0  0  0
 10 11  1  0  0  0  0
 10 23  1  0  0  0  0
 10 24  1  0  0  0  0
 11 12  1  0  0  0  0
 11 13  1  0  0  0  0
 11 38  1  0  0  0  0
 12 25  1  0  0  0  0
 12 26  1  0  0  0  0
 12 27  1  0  0  0  0
 13 28  1  0  0  0  0
 13 29  1  0  0  0  0
 13 30  1  0  0  0  0
 14 15  1  0  0  0  0
 14 31  1  0  0  0  0
 14 32  1  0  0  0  0
 15 16  1  0  0  0  0
 15 33  1  0  0  0  0
 15 34  1  0  0  0  0
 16 17  1  0  0  0  0
 16 35  1  0  0  0  0
 16 36  1  0  0  0  0
 17 37  1  0  0  0  0
M  CHG  2   3   1  11   1
M  END
$$$$
