Q02
 OpenBabel04111922023D

 21 21  0  0  1  0  0  0  0  0999 V2000
   22.4230   -2.3758   12.7344 O   0  0  0  0  0  0  0  0  0  0  0  0
   21.7943   -2.5431   11.3669 P   0  0  0  0  0  0  0  0  0  0  0  0
   21.9094   -1.3261   10.4393 O   0  0  0  0  0  0  0  0  0  0  0  0
   20.5222   -3.3666   11.2589 O   0  0  0  0  0  0  0  0  0  0  0  0
   23.0987   -3.6563   10.3916 C   0  0  1  0  0  0  0  0  0  0  0  0
   24.2288   -2.9001    9.7197 N   0  3  0  0  0  0  0  0  0  0  0  0
   23.4854   -5.0109   10.8958 C   0  0  0  0  0  0  0  0  0  0  0  0
   24.6051   -5.7174   10.3659 C   0  0  0  0  0  0  0  0  0  0  0  0
   24.8278   -7.0362   10.6752 C   0  0  0  0  0  0  0  0  0  0  0  0
   23.9769   -7.7037   11.5333 C   0  0  0  0  0  0  0  0  0  0  0  0
   22.8941   -7.0287   12.0972 C   0  0  0  0  0  0  0  0  0  0  0  0
   22.6368   -5.6944   11.7897 C   0  0  0  0  0  0  0  0  0  0  0  0
   22.4618   -3.8864    9.5423 H   0  0  0  0  0  0  0  0  0  0  0  0
   24.8958   -3.4933    9.2873 H   0  0  0  0  0  0  0  0  0  0  0  0
   23.7105   -2.3127    9.0475 H   0  0  0  0  0  0  0  0  0  0  0  0
   25.2494   -5.2638    9.6179 H   0  0  0  0  0  0  0  0  0  0  0  0
   25.6522   -7.5482   10.2093 H   0  0  0  0  0  0  0  0  0  0  0  0
   24.1238   -8.7384   11.7627 H   0  0  0  0  0  0  0  0  0  0  0  0
   22.2006   -7.5366   12.7811 H   0  0  0  0  0  0  0  0  0  0  0  0
   21.7563   -5.1976   12.2025 H   0  0  0  0  0  0  0  0  0  0  0  0
   24.6072   -2.2488   10.4121 H   0  0  0  0  0  0  0  0  0  0  0  0
  1  2  2  0  0  0  0
  2  3  1  0  0  0  0
  2  4  1  0  0  0  0
  2  5  1  0  0  0  0
  5  6  1  0  0  0  0
  5  7  1  0  0  0  0
  5 13  1  6  0  0  0
  6 14  1  0  0  0  0
  6 15  1  0  0  0  0
  6 21  1  0  0  0  0
  7  8  2  0  0  0  0
  7 12  1  0  0  0  0
  8  9  1  0  0  0  0
  8 16  1  0  0  0  0
  9 10  2  0  0  0  0
  9 17  1  0  0  0  0
 10 11  1  0  0  0  0
 10 18  1  0  0  0  0
 11 12  2  0  0  0  0
 11 19  1  0  0  0  0
 12 20  1  0  0  0  0
M  CHG  1   6   1
M  END
$$$$
