Q03
 OpenBabel04111922023D

 27 27  0  0  1  0  0  0  0  0999 V2000
    2.6255   -3.3130   12.7541 O   0  0  0  0  0  0  0  0  0  0  0  0
    1.3382   -2.5398   12.7980 P   0  0  0  0  0  0  0  0  0  0  0  0
    1.2239   -1.3071   13.7261 O   0  0  0  0  0  0  0  0  0  0  0  0
    0.4455   -2.4764   11.5690 O   0  0  0  0  0  0  0  0  0  0  0  0
    0.2310   -3.6917   13.9845 C   0  0  1  0  0  0  0  0  0  0  0  0
   -0.8954   -2.8406   14.4789 N   0  3  0  0  0  0  0  0  0  0  0  0
   -0.2018   -4.9807   13.2902 C   0  0  0  0  0  0  0  0  0  0  0  0
   -1.5944   -4.9578   12.6640 C   0  0  0  0  0  0  0  0  0  0  0  0
   -1.9310   -6.2761   11.9669 C   0  0  0  0  0  0  0  0  0  0  0  0
   -1.4598   -7.5506   12.6754 C   0  0  0  0  0  0  0  0  0  0  0  0
   -0.1170   -7.4421   13.3792 C   0  0  0  0  0  0  0  0  0  0  0  0
   -0.0903   -6.1839   14.2338 C   0  0  0  0  0  0  0  0  0  0  0  0
    0.8831   -3.8705   14.8333 H   0  0  0  0  0  0  0  0  0  0  0  0
   -1.5219   -3.2841   15.1366 H   0  0  0  0  0  0  0  0  0  0  0  0
   -0.3587   -2.0296   14.8382 H   0  0  0  0  0  0  0  0  0  0  0  0
    0.5188   -5.1506   12.4790 H   0  0  0  0  0  0  0  0  0  0  0  0
   -1.6561   -4.1468   11.9298 H   0  0  0  0  0  0  0  0  0  0  0  0
   -2.3617   -4.7551   13.4245 H   0  0  0  0  0  0  0  0  0  0  0  0
   -1.4914   -6.2485   10.9659 H   0  0  0  0  0  0  0  0  0  0  0  0
   -3.0176   -6.3348   11.8365 H   0  0  0  0  0  0  0  0  0  0  0  0
   -1.4158   -8.3653   11.9431 H   0  0  0  0  0  0  0  0  0  0  0  0
   -2.2072   -7.8315   13.4265 H   0  0  0  0  0  0  0  0  0  0  0  0
    0.6985   -7.4102   12.6418 H   0  0  0  0  0  0  0  0  0  0  0  0
    0.0560   -8.3272   13.9988 H   0  0  0  0  0  0  0  0  0  0  0  0
   -0.9270   -6.2036   14.9492 H   0  0  0  0  0  0  0  0  0  0  0  0
    0.8362   -6.1506   14.8122 H   0  0  0  0  0  0  0  0  0  0  0  0
   -1.3083   -2.4420   13.6343 H   0  0  0  0  0  0  0  0  0  0  0  0
  1  2  2  0  0  0  0
  2  3  1  0  0  0  0
  2  4  1  0  0  0  0
  2  5  1  0  0  0  0
  5  6  1  0  0  0  0
  5  7  1  0  0  0  0
  5 13  1  1  0  0  0
  6 14  1  0  0  0  0
  6 15  1  0  0  0  0
  6 27  1  0  0  0  0
  7  8  1  0  0  0  0
  7 12  1  0  0  0  0
  7 16  1  0  0  0  0
  8  9  1  0  0  0  0
  8 17  1  0  0  0  0
  8 18  1  0  0  0  0
  9 10  1  0  0  0  0
  9 19  1  0  0  0  0
  9 20  1  0  0  0  0
 10 11  1  0  0  0  0
 10 21  1  0  0  0  0
 10 22  1  0  0  0  0
 11 12  1  0  0  0  0
 11 23  1  0  0  0  0
 11 24  1  0  0  0  0
 12 25  1  0  0  0  0
 12 26  1  0  0  0  0
M  CHG  1   6   1
M  END
$$$$
