Q04
 OpenBabel04111922023D

 30 30  0  0  1  0  0  0  0  0999 V2000
   20.5353   -3.0677   11.5009 O   0  0  0  0  0  0  0  0  0  0  0  0
   21.8580   -2.3278   11.4035 P   0  0  0  0  0  0  0  0  0  0  0  0
   22.6829   -2.0773   12.6447 O   0  0  0  0  0  0  0  0  0  0  0  0
   22.0657   -1.3086   10.2954 O   0  0  0  0  0  0  0  0  0  0  0  0
   22.9809   -3.6976   10.5389 C   0  0  1  0  0  0  0  0  0  0  0  0
   24.1898   -2.9629   10.0134 N   0  3  0  0  0  0  0  0  0  0  0  0
   23.3887   -4.6838   11.6040 C   0  0  0  0  0  0  0  0  0  0  0  0
   23.9133   -6.0106   11.1072 C   0  0  0  0  0  0  0  0  0  0  0  0
   24.5833   -6.6550   12.3216 C   0  0  0  0  0  0  0  0  0  0  0  0
   25.4981   -7.7330   11.7914 C   0  0  0  0  0  0  0  0  0  0  0  0
   24.6385   -8.8397   11.1955 C   0  0  0  0  0  0  0  0  0  0  0  0
   23.6477   -8.3238   10.1440 C   0  0  0  0  0  0  0  0  0  0  0  0
   22.9025   -7.0351   10.5601 C   0  0  0  0  0  0  0  0  0  0  0  0
   22.4370   -4.1019    9.6831 H   0  0  0  0  0  0  0  0  0  0  0  0
   24.8601   -3.5161    9.5143 H   0  0  0  0  0  0  0  0  0  0  0  0
   23.7273   -2.1888    9.4894 H   0  0  0  0  0  0  0  0  0  0  0  0
   22.5623   -4.8508   12.2998 H   0  0  0  0  0  0  0  0  0  0  0  0
   24.1857   -4.2017   12.1845 H   0  0  0  0  0  0  0  0  0  0  0  0
   24.6485   -5.8156   10.3136 H   0  0  0  0  0  0  0  0  0  0  0  0
   23.8172   -7.0760   12.9927 H   0  0  0  0  0  0  0  0  0  0  0  0
   25.1475   -5.9327   12.9132 H   0  0  0  0  0  0  0  0  0  0  0  0
   26.1441   -8.0973   12.5942 H   0  0  0  0  0  0  0  0  0  0  0  0
   26.1504   -7.2985   11.0198 H   0  0  0  0  0  0  0  0  0  0  0  0
   24.0747   -9.3179   12.0137 H   0  0  0  0  0  0  0  0  0  0  0  0
   25.2954   -9.6247   10.7605 H   0  0  0  0  0  0  0  0  0  0  0  0
   22.9124   -9.1011    9.9144 H   0  0  0  0  0  0  0  0  0  0  0  0
   24.1962   -8.1281    9.2125 H   0  0  0  0  0  0  0  0  0  0  0  0
   22.3432   -6.6442    9.7030 H   0  0  0  0  0  0  0  0  0  0  0  0
   22.1626   -7.2896   11.3261 H   0  0  0  0  0  0  0  0  0  0  0  0
   24.5422   -2.4480   10.8387 H   0  0  0  0  0  0  0  0  0  0  0  0
  1  2  2  0  0  0  0
  2  3  1  0  0  0  0
  2  4  1  0  0  0  0
  2  5  1  0  0  0  0
  5  6  1  0  0  0  0
  5  7  1  0  0  0  0
  5 14  1  6  0  0  0
  6 15  1  0  0  0  0
  6 16  1  0  0  0  0
  6 30  1  0  0  0  0
  7  8  1  0  0  0  0
  7 17  1  0  0  0  0
  7 18  1  0  0  0  0
  8  9  1  0  0  0  0
  8 13  1  0  0  0  0
  8 19  1  0  0  0  0
  9 10  1  0  0  0  0
  9 20  1  0  0  0  0
  9 21  1  0  0  0  0
 10 11  1  0  0  0  0
 10 22  1  0  0  0  0
 10 23  1  0  0  0  0
 11 12  1  0  0  0  0
 11 24  1  0  0  0  0
 11 25  1  0  0  0  0
 12 13  1  0  0  0  0
 12 26  1  0  0  0  0
 12 27  1  0  0  0  0
 13 28  1  0  0  0  0
 13 29  1  0  0  0  0
M  CHG  1   6   1
M  END
$$$$
