Q06
 OpenBabel04111922013D

 30 30  0  0  1  0  0  0  0  0999 V2000
   22.1747   -2.1525   12.3183 O   0  0  0  0  0  0  0  0  0  0  0  0
   21.2486   -2.2275   11.1260 P   0  0  0  0  0  0  0  0  0  0  0  0
   21.3462   -1.0362   10.1838 O   0  0  0  0  0  0  0  0  0  0  0  0
   19.8988   -2.9271   11.2346 O   0  0  0  0  0  0  0  0  0  0  0  0
   22.2242   -3.5027    9.9793 C   0  0  1  0  0  0  0  0  0  0  0  0
   23.6074   -3.1356    9.5013 N   0  3  0  0  0  0  0  0  0  0  0  0
   22.1300   -4.6033   11.0142 C   0  0  0  0  0  0  0  0  0  0  0  0
   23.3849   -5.2800   11.3502 C   0  0  0  0  0  0  0  0  0  0  0  0
   23.4298   -6.5020   10.5012 C   0  0  0  0  0  0  0  0  0  0  0  0
   22.0913   -7.1675   10.1434 C   0  0  0  0  0  0  0  0  0  0  0  0
   22.4787   -8.5957    9.8849 C   0  0  0  0  0  0  0  0  0  0  0  0
   23.7417   -8.8228   10.7076 C   0  0  0  0  0  0  0  0  0  0  0  0
   24.0981   -7.5240   11.3707 C   0  0  0  0  0  0  0  0  0  0  0  0
   21.6683   -3.7921    9.0623 H   0  0  0  0  0  0  0  0  0  0  0  0
   24.0534   -3.8154    8.8957 H   0  0  0  0  0  0  0  0  0  0  0  0
   23.4627   -2.2097    9.0486 H   0  0  0  0  0  0  0  0  0  0  0  0
   21.2824   -5.2196   10.7272 H   0  0  0  0  0  0  0  0  0  0  0  0
   21.7616   -4.2810   11.9876 H   0  0  0  0  0  0  0  0  0  0  0  0
   23.3625   -5.4946   12.4271 H   0  0  0  0  0  0  0  0  0  0  0  0
   24.2719   -4.6573   11.2169 H   0  0  0  0  0  0  0  0  0  0  0  0
   23.9709   -6.2774    9.5728 H   0  0  0  0  0  0  0  0  0  0  0  0
   21.6098   -6.7098    9.2673 H   0  0  0  0  0  0  0  0  0  0  0  0
   21.3756   -7.1415   10.9793 H   0  0  0  0  0  0  0  0  0  0  0  0
   22.6802   -8.7274    8.8195 H   0  0  0  0  0  0  0  0  0  0  0  0
   21.6695   -9.2687   10.1782 H   0  0  0  0  0  0  0  0  0  0  0  0
   24.5643   -9.1110   10.0542 H   0  0  0  0  0  0  0  0  0  0  0  0
   23.5782   -9.5832   11.4705 H   0  0  0  0  0  0  0  0  0  0  0  0
   23.6732   -7.4934   12.3873 H   0  0  0  0  0  0  0  0  0  0  0  0
   25.1668   -7.3179   11.4469 H   0  0  0  0  0  0  0  0  0  0  0  0
   24.1561   -2.9215   10.3586 H   0  0  0  0  0  0  0  0  0  0  0  0
  1  2  2  0  0  0  0
  2  3  1  0  0  0  0
  2  4  1  0  0  0  0
  2  5  1  0  0  0  0
  5  6  1  0  0  0  0
  5  7  1  0  0  0  0
  5 14  1  6  0  0  0
  6 15  1  0  0  0  0
  6 16  1  0  0  0  0
  6 30  1  0  0  0  0
  7  8  1  0  0  0  0
  7 17  1  0  0  0  0
  7 18  1  0  0  0  0
  8  9  1  0  0  0  0
  8 19  1  0  0  0  0
  8 20  1  0  0  0  0
  9 10  1  0  0  0  0
  9 13  1  0  0  0  0
  9 21  1  0  0  0  0
 10 11  1  0  0  0  0
 10 22  1  0  0  0  0
 10 23  1  0  0  0  0
 11 12  1  0  0  0  0
 11 24  1  0  0  0  0
 11 25  1  0  0  0  0
 12 13  1  0  0  0  0
 12 26  1  0  0  0  0
 12 27  1  0  0  0  0
 13 28  1  0  0  0  0
 13 29  1  0  0  0  0
M  CHG  1   6   1
M  END
$$$$
