Q07
 OpenBabel04111922013D

 26 25  0  0  1  0  0  0  0  0999 V2000
   21.9271   -2.1129   12.0880 O   0  0  0  0  0  0  0  0  0  0  0  0
   21.1345   -2.4426   10.8067 P   0  0  0  0  0  0  0  0  0  0  0  0
   19.8790   -3.2762   10.9091 O   0  0  0  0  0  0  0  0  0  0  0  0
   21.2040   -1.3199    9.7620 O   0  0  0  0  0  0  0  0  0  0  0  0
   22.3485   -3.6556    9.8739 C   0  0  1  0  0  0  0  0  0  0  0  0
   23.5954   -2.9891    9.3634 N   0  3  0  0  0  0  0  0  0  0  0  0
   22.6860   -4.8331   10.7867 C   0  0  2  0  0  0  0  0  0  0  0  0
   23.7478   -4.4816   11.8231 C   0  0  0  0  0  0  0  0  0  0  0  0
   23.1093   -6.0612    9.9724 C   0  0  0  0  0  0  0  0  0  0  0  0
   23.0343   -7.2958   10.8687 C   0  0  0  0  0  0  0  0  0  0  0  0
   23.0838   -8.5843   10.0768 C   0  0  0  0  0  0  0  0  0  0  0  0
   21.7934   -3.9691    8.9773 H   0  0  0  0  0  0  0  0  0  0  0  0
   24.2055   -3.6415    8.8906 H   0  0  0  0  0  0  0  0  0  0  0  0
   23.2397   -2.2055    8.7954 H   0  0  0  0  0  0  0  0  0  0  0  0
   21.7600   -5.0840   11.3141 H   0  0  0  0  0  0  0  0  0  0  0  0
   23.9806   -5.3433   12.4729 H   0  0  0  0  0  0  0  0  0  0  0  0
   23.4111   -3.6992   12.4933 H   0  0  0  0  0  0  0  0  0  0  0  0
   24.6853   -4.1541   11.3676 H   0  0  0  0  0  0  0  0  0  0  0  0
   24.1283   -5.9399    9.5826 H   0  0  0  0  0  0  0  0  0  0  0  0
   22.4438   -6.1846    9.1125 H   0  0  0  0  0  0  0  0  0  0  0  0
   22.1023   -7.2752   11.4464 H   0  0  0  0  0  0  0  0  0  0  0  0
   23.8633   -7.2895   11.5812 H   0  0  0  0  0  0  0  0  0  0  0  0
   23.0188   -9.4285   10.7675 H   0  0  0  0  0  0  0  0  0  0  0  0
   24.0168   -8.6582    9.5146 H   0  0  0  0  0  0  0  0  0  0  0  0
   22.2398   -8.6400    9.3857 H   0  0  0  0  0  0  0  0  0  0  0  0
   23.9960   -2.5355   10.1957 H   0  0  0  0  0  0  0  0  0  0  0  0
  1  2  2  0  0  0  0
  2  3  1  0  0  0  0
  2  4  1  0  0  0  0
  2  5  1  0  0  0  0
  5  6  1  0  0  0  0
  5  7  1  0  0  0  0
  5 12  1  6  0  0  0
  6 13  1  0  0  0  0
  6 14  1  0  0  0  0
  6 26  1  0  0  0  0
  7  8  1  0  0  0  0
  7  9  1  0  0  0  0
  7 15  1  1  0  0  0
  8 16  1  0  0  0  0
  8 17  1  0  0  0  0
  8 18  1  0  0  0  0
  9 10  1  0  0  0  0
  9 19  1  0  0  0  0
  9 20  1  0  0  0  0
 10 11  1  0  0  0  0
 10 21  1  0  0  0  0
 10 22  1  0  0  0  0
 11 23  1  0  0  0  0
 11 24  1  0  0  0  0
 11 25  1  0  0  0  0
M  CHG  1   6   1
M  END
$$$$
