Q08
 OpenBabel04111922013D

 32 31  0  0  1  0  0  0  0  0999 V2000
   22.2439   -2.3354   12.3941 O   0  0  0  0  0  0  0  0  0  0  0  0
   21.5553   -2.5738   11.0804 P   0  0  0  0  0  0  0  0  0  0  0  0
   20.2402   -3.3284   11.0209 O   0  0  0  0  0  0  0  0  0  0  0  0
   21.8052   -1.4920   10.0046 O   0  0  0  0  0  0  0  0  0  0  0  0
   22.7877   -3.8595   10.1942 C   0  0  1  0  0  0  0  0  0  0  0  0
   23.7336   -2.9640    9.4128 N   0  3  0  0  0  0  0  0  0  0  0  0
   23.5010   -4.8416   11.1409 C   0  0  0  0  0  0  0  0  0  0  0  0
   24.9626   -5.0536   10.6870 C   0  0  0  0  0  0  0  0  0  0  0  0
   25.7008   -6.1490   11.4312 C   0  0  0  0  0  0  0  0  0  0  0  0
   27.0710   -5.7145   11.8807 C   0  0  0  0  0  0  0  0  0  0  0  0
   22.6514   -6.1409   11.2888 C   0  0  0  0  0  0  0  0  0  0  0  0
   23.2540   -7.4311   10.7018 C   0  0  0  0  0  0  0  0  0  0  0  0
   22.2609   -8.4647   10.2567 C   0  0  0  0  0  0  0  0  0  0  0  0
   22.1769   -4.3542    9.4360 H   0  0  0  0  0  0  0  0  0  0  0  0
   24.3824   -3.4275    8.7931 H   0  0  0  0  0  0  0  0  0  0  0  0
   23.0461   -2.3226    8.9690 H   0  0  0  0  0  0  0  0  0  0  0  0
   23.5567   -4.3825   12.1392 H   0  0  0  0  0  0  0  0  0  0  0  0
   25.5140   -4.1098   10.7832 H   0  0  0  0  0  0  0  0  0  0  0  0
   24.9650   -5.3052    9.6138 H   0  0  0  0  0  0  0  0  0  0  0  0
   25.8420   -7.0077   10.7605 H   0  0  0  0  0  0  0  0  0  0  0  0
   25.1529   -6.4780   12.3164 H   0  0  0  0  0  0  0  0  0  0  0  0
   27.5675   -6.5572   12.3736 H   0  0  0  0  0  0  0  0  0  0  0  0
   26.9890   -4.8899   12.5904 H   0  0  0  0  0  0  0  0  0  0  0  0
   27.6764   -5.4017   11.0234 H   0  0  0  0  0  0  0  0  0  0  0  0
   21.6527   -5.9783   10.8692 H   0  0  0  0  0  0  0  0  0  0  0  0
   22.4838   -6.3094   12.3622 H   0  0  0  0  0  0  0  0  0  0  0  0
   23.8876   -7.9122   11.4543 H   0  0  0  0  0  0  0  0  0  0  0  0
   23.8686   -7.2003    9.8199 H   0  0  0  0  0  0  0  0  0  0  0  0
   22.8057   -9.3374    9.8750 H   0  0  0  0  0  0  0  0  0  0  0  0
   21.6379   -8.0713    9.4463 H   0  0  0  0  0  0  0  0  0  0  0  0
   21.6285   -8.7859   11.0854 H   0  0  0  0  0  0  0  0  0  0  0  0
   24.1196   -2.3210   10.1081 H   0  0  0  0  0  0  0  0  0  0  0  0
  1  2  2  0  0  0  0
  2  3  1  0  0  0  0
  2  4  1  0  0  0  0
  2  5  1  0  0  0  0
  5  6  1  0  0  0  0
  5  7  1  0  0  0  0
  5 14  1  6  0  0  0
  6 15  1  0  0  0  0
  6 16  1  0  0  0  0
  6 32  1  0  0  0  0
  7  8  1  0  0  0  0
  7 11  1  0  0  0  0
  7 17  1  0  0  0  0
  8  9  1  0  0  0  0
  8 18  1  0  0  0  0
  8 19  1  0  0  0  0
  9 10  1  0  0  0  0
  9 20  1  0  0  0  0
  9 21  1  0  0  0  0
 10 22  1  0  0  0  0
 10 23  1  0  0  0  0
 10 24  1  0  0  0  0
 11 12  1  0  0  0  0
 11 25  1  0  0  0  0
 11 26  1  0  0  0  0
 12 13  1  0  0  0  0
 12 27  1  0  0  0  0
 12 28  1  0  0  0  0
 13 29  1  0  0  0  0
 13 30  1  0  0  0  0
 13 31  1  0  0  0  0
M  CHG  1   6   1
M  END
$$$$
