Q7M
 OpenBabel04111920593D

 55 59  0  0  0  0  0  0  0  0999 V2000
   -4.8338    0.0022  -15.5056 F   0  0  0  0  0  0  0  0  0  0  0  0
   -3.7641   -0.5270  -14.8393 C   0  0  0  0  0  0  0  0  0  0  0  0
   -3.4588    0.3909  -13.8750 F   0  0  0  0  0  0  0  0  0  0  0  0
   -4.1871   -1.6303  -14.1788 F   0  0  0  0  0  0  0  0  0  0  0  0
   -2.5892   -0.7332  -15.7401 C   0  0  0  0  0  0  0  0  0  0  0  0
   -1.6530   -1.7650  -15.6022 C   0  0  0  0  0  0  0  0  0  0  0  0
   -2.3898    0.2348  -16.7059 C   0  0  0  0  0  0  0  0  0  0  0  0
   -1.3039    0.1907  -17.5451 C   0  0  0  0  0  0  0  0  0  0  0  0
   -0.3729   -0.8151  -17.4102 C   0  0  0  0  0  0  0  0  0  0  0  0
   -0.5548   -1.8031  -16.4512 C   0  0  0  0  0  0  0  0  0  0  0  0
    0.4692   -2.7662  -16.4693 N   0  0  0  0  0  0  0  0  0  0  0  0
    0.3249   -4.0020  -15.9780 C   0  0  0  0  0  0  0  0  0  0  0  0
   -0.7167   -4.4008  -15.4689 O   0  0  0  0  0  0  0  0  0  0  0  0
    1.4138   -4.7883  -16.0563 N   0  0  0  0  0  0  0  0  0  0  0  0
    1.4633   -6.1143  -15.5958 C   0  0  0  0  0  0  0  0  0  0  0  0
    0.3544   -6.9017  -15.3941 C   0  0  0  0  0  0  0  0  0  0  0  0
    0.4742   -8.1970  -14.9442 C   0  0  0  0  0  0  0  0  0  0  0  0
    2.7221   -6.6637  -15.3671 C   0  0  0  0  0  0  0  0  0  0  0  0
    2.8612   -7.9709  -14.8938 C   0  0  0  0  0  0  0  0  0  0  0  0
    1.7172   -8.7258  -14.6663 C   0  0  0  0  0  0  0  0  0  0  0  0
    1.7057  -10.0643  -14.2441 N   0  3  0  0  0  0  0  0  0  0  0  0
    1.3017  -10.5343  -12.9873 C   0  0  0  0  0  0  0  0  0  0  0  0
    1.1282   -9.6542  -11.9621 N   0  0  0  0  0  0  0  0  0  0  0  0
    1.7163  -11.0996  -15.1290 C   0  0  0  0  0  0  0  0  0  0  0  0
    1.4300  -12.2445  -14.4110 C   0  0  0  0  0  0  0  0  0  0  0  0
    1.1593  -11.9232  -13.0356 C   0  0  0  0  0  0  0  0  0  0  0  0
    0.8191  -12.8720  -11.9390 C   0  0  0  0  0  0  0  0  0  0  0  0
    0.5638  -14.1860  -12.2657 N   0  0  0  0  0  0  0  0  0  0  0  0
    0.7354  -12.5811  -10.7478 O   0  0  0  0  0  0  0  0  0  0  0  0
    1.9722  -11.0434  -16.4611 N   0  0  0  0  0  0  0  0  0  0  0  0
    1.9710  -12.2491  -17.0443 C   0  0  0  0  0  0  0  0  0  0  0  0
    1.7096  -13.4608  -16.3150 C   0  0  0  0  0  0  0  0  0  0  0  0
    1.4270  -13.4651  -15.0000 N   0  0  0  0  0  0  0  0  0  0  0  0
    2.2413  -12.3221  -18.4029 C   0  0  0  0  0  0  0  0  0  0  0  0
    2.2842  -13.5615  -19.0364 C   0  0  0  0  0  0  0  0  0  0  0  0
    2.0272  -14.7367  -18.3279 C   0  0  0  0  0  0  0  0  0  0  0  0
    1.7342  -14.6805  -16.9659 C   0  0  0  0  0  0  0  0  0  0  0  0
   -1.7942   -2.4916  -14.7918 H   0  0  0  0  0  0  0  0  0  0  0  0
   -3.1078    1.0579  -16.7927 H   0  0  0  0  0  0  0  0  0  0  0  0
   -1.1795    0.9369  -18.3086 H   0  0  0  0  0  0  0  0  0  0  0  0
    0.4724   -0.8455  -18.0826 H   0  0  0  0  0  0  0  0  0  0  0  0
    1.2760   -2.5964  -17.0058 H   0  0  0  0  0  0  0  0  0  0  0  0
    2.2449   -4.3575  -16.3524 H   0  0  0  0  0  0  0  0  0  0  0  0
   -0.6507   -6.5531  -15.5843 H   0  0  0  0  0  0  0  0  0  0  0  0
   -0.4056   -8.8057  -14.7989 H   0  0  0  0  0  0  0  0  0  0  0  0
    3.6003   -6.0556  -15.5275 H   0  0  0  0  0  0  0  0  0  0  0  0
    3.8481   -8.3615  -14.6981 H   0  0  0  0  0  0  0  0  0  0  0  0
    0.8563  -10.0073  -11.0459 H   0  0  0  0  0  0  0  0  0  0  0  0
    1.2984   -8.6608  -12.0224 H   0  0  0  0  0  0  0  0  0  0  0  0
    0.3230  -14.8400  -11.5293 H   0  0  0  0  0  0  0  0  0  0  0  0
    0.5917  -14.4988  -13.2304 H   0  0  0  0  0  0  0  0  0  0  0  0
    2.4591  -11.4249  -18.9645 H   0  0  0  0  0  0  0  0  0  0  0  0
    2.5026  -13.6149  -20.0974 H   0  0  0  0  0  0  0  0  0  0  0  0
    2.0605  -15.6887  -18.8455 H   0  0  0  0  0  0  0  0  0  0  0  0
    1.5280  -15.6064  -16.4299 H   0  0  0  0  0  0  0  0  0  0  0  0
  1  2  1  0  0  0  0
  2  3  1  0  0  0  0
  2  4  1  0  0  0  0
  2  5  1  0  0  0  0
  5  6  2  0  0  0  0
  5  7  1  0  0  0  0
  6 10  1  0  0  0  0
  6 38  1  0  0  0  0
  7  8  2  0  0  0  0
  7 39  1  0  0  0  0
  8  9  1  0  0  0  0
  8 40  1  0  0  0  0
  9 10  2  0  0  0  0
  9 41  1  0  0  0  0
 10 11  1  0  0  0  0
 11 12  1  0  0  0  0
 11 42  1  0  0  0  0
 12 13  2  0  0  0  0
 12 14  1  0  0  0  0
 14 15  1  0  0  0  0
 14 43  1  0  0  0  0
 15 16  2  0  0  0  0
 15 18  1  0  0  0  0
 16 17  1  0  0  0  0
 16 44  1  0  0  0  0
 17 20  2  0  0  0  0
 17 45  1  0  0  0  0
 18 19  2  0  0  0  0
 18 46  1  0  0  0  0
 19 20  1  0  0  0  0
 19 47  1  0  0  0  0
 20 21  1  0  0  0  0
 21 22  1  0  0  0  0
 21 24  2  0  0  0  0
 22 23  1  0  0  0  0
 22 26  2  0  0  0  0
 23 48  1  0  0  0  0
 23 49  1  0  0  0  0
 24 25  1  0  0  0  0
 24 30  1  0  0  0  0
 25 26  1  0  0  0  0
 25 33  2  0  0  0  0
 26 27  1  0  0  0  0
 27 28  1  0  0  0  0
 27 29  2  0  0  0  0
 28 50  1  0  0  0  0
 28 51  1  0  0  0  0
 30 31  1  0  0  0  0
 31 32  2  0  0  0  0
 31 34  1  0  0  0  0
 32 33  1  0  0  0  0
 32 37  1  0  0  0  0
 34 35  2  0  0  0  0
 34 52  1  0  0  0  0
 35 36  1  0  0  0  0
 35 53  1  0  0  0  0
 36 37  2  0  0  0  0
 36 54  1  0  0  0  0
 37 55  1  0  0  0  0
M  CHG  1  21   1
M  END
$$$$
