QI9
 OpenBabel04111922093D

 49 52  0  0  1  0  0  0  0  0999 V2000
    4.7144   -7.7224  -57.4045 O   0  0  0  0  0  0  0  0  0  0  0  0
    4.4632   -7.3989  -56.0379 C   0  0  1  0  0  0  0  0  0  0  0  0
    5.6789   -7.7785  -55.1340 C   0  0  1  0  0  0  0  0  0  0  0  0
    5.8273   -9.3089  -54.9517 N   0  3  1  0  0  0  0  0  0  0  0  0
    6.3896  -10.0022  -56.1774 C   0  0  0  0  0  0  0  0  0  0  0  0
    7.7892   -9.4576  -56.4471 C   0  0  0  0  0  0  0  0  0  0  0  0
    6.7362   -9.5662  -53.7487 C   0  0  0  0  0  0  0  0  0  0  0  0
    8.1160   -8.9122  -54.0185 C   0  0  2  0  0  0  0  0  0  0  0  0
    8.5916   -7.8616  -53.0410 C   0  0  0  0  0  0  0  0  0  0  0  0
    7.9855   -7.3848  -51.9460 C   0  0  0  0  0  0  0  0  0  0  0  0
    8.1276   -8.3292  -55.4594 C   0  0  2  0  0  0  0  0  0  0  0  0
    7.0399   -7.2489  -55.6189 C   0  0  0  0  0  0  0  0  0  0  0  0
    4.0892   -5.9350  -55.8537 C   0  0  0  0  0  0  0  0  0  0  0  0
    4.5560   -4.9697  -56.7587 C   0  0  0  0  0  0  0  0  0  0  0  0
    4.2487   -3.6441  -56.5327 C   0  0  0  0  0  0  0  0  0  0  0  0
    3.5303   -3.2133  -55.4811 N   0  0  0  0  0  0  0  0  0  0  0  0
    3.0768   -4.1162  -54.5965 C   0  0  0  0  0  0  0  0  0  0  0  0
    3.3250   -5.5013  -54.7311 C   0  0  0  0  0  0  0  0  0  0  0  0
    2.8163   -6.3823  -53.7412 C   0  0  0  0  0  0  0  0  0  0  0  0
    2.3524   -3.6719  -53.4990 C   0  0  0  0  0  0  0  0  0  0  0  0
    1.8643   -4.5552  -52.5286 C   0  0  0  0  0  0  0  0  0  0  0  0
    2.0882   -5.9197  -52.6485 C   0  0  0  0  0  0  0  0  0  0  0  0
    1.6001   -6.6994  -51.6392 O   0  0  0  0  0  0  0  0  0  0  0  0
    1.4759   -8.0974  -51.8854 C   0  0  0  0  0  0  0  0  0  0  0  0
    3.9610   -7.3839  -57.9282 H   0  0  0  0  0  0  0  0  0  0  0  0
    3.6001   -8.0154  -55.7676 H   0  0  0  0  0  0  0  0  0  0  0  0
    5.4877   -7.4047  -54.1209 H   0  0  0  0  0  0  0  0  0  0  0  0
    5.7041   -9.8453  -57.0111 H   0  0  0  0  0  0  0  0  0  0  0  0
    6.4100  -11.0762  -55.9611 H   0  0  0  0  0  0  0  0  0  0  0  0
    7.8479   -9.0887  -57.4782 H   0  0  0  0  0  0  0  0  0  0  0  0
    8.5265  -10.2657  -56.3679 H   0  0  0  0  0  0  0  0  0  0  0  0
    6.8194  -10.6527  -53.6364 H   0  0  0  0  0  0  0  0  0  0  0  0
    6.2056   -9.1843  -52.8745 H   0  0  0  0  0  0  0  0  0  0  0  0
    8.8639   -9.7166  -53.9705 H   0  0  0  0  0  0  0  0  0  0  0  0
    9.5789   -7.4449  -53.2658 H   0  0  0  0  0  0  0  0  0  0  0  0
    8.4763   -6.6203  -51.3451 H   0  0  0  0  0  0  0  0  0  0  0  0
    7.0185   -7.7112  -51.5828 H   0  0  0  0  0  0  0  0  0  0  0  0
    9.1103   -7.9095  -55.7049 H   0  0  0  0  0  0  0  0  0  0  0  0
    7.2990   -6.3474  -55.0514 H   0  0  0  0  0  0  0  0  0  0  0  0
    6.9973   -6.9380  -56.6693 H   0  0  0  0  0  0  0  0  0  0  0  0
    5.1585   -5.2325  -57.6231 H   0  0  0  0  0  0  0  0  0  0  0  0
    4.5918   -2.8618  -57.2086 H   0  0  0  0  0  0  0  0  0  0  0  0
    3.0054   -7.4426  -53.8152 H   0  0  0  0  0  0  0  0  0  0  0  0
    2.1637   -2.6053  -53.3890 H   0  0  0  0  0  0  0  0  0  0  0  0
    1.3039   -4.1652  -51.6814 H   0  0  0  0  0  0  0  0  0  0  0  0
    1.0628   -8.5630  -50.9858 H   0  0  0  0  0  0  0  0  0  0  0  0
    2.4483   -8.5661  -52.0700 H   0  0  0  0  0  0  0  0  0  0  0  0
    0.7871   -8.2901  -52.7147 H   0  0  0  0  0  0  0  0  0  0  0  0
    4.9058   -9.7198  -54.7535 H   0  0  0  0  0  0  0  0  0  0  0  0
  1  2  1  0  0  0  0
  1 25  1  0  0  0  0
  2  3  1  0  0  0  0
  2 13  1  0  0  0  0
  2 26  1  1  0  0  0
  3  4  1  0  0  0  0
  3 12  1  0  0  0  0
  3 27  1  1  0  0  0
  4  5  1  0  0  0  0
  4  7  1  0  0  0  0
  4 49  1  1  0  0  0
  5  6  1  0  0  0  0
  5 28  1  0  0  0  0
  5 29  1  0  0  0  0
  6 11  1  0  0  0  0
  6 30  1  0  0  0  0
  6 31  1  0  0  0  0
  7  8  1  0  0  0  0
  7 32  1  0  0  0  0
  7 33  1  0  0  0  0
  8  9  1  0  0  0  0
  8 11  1  0  0  0  0
  8 34  1  1  0  0  0
  9 10  2  0  0  0  0
  9 35  1  0  0  0  0
 10 36  1  0  0  0  0
 10 37  1  0  0  0  0
 11 12  1  0  0  0  0
 11 38  1  6  0  0  0
 12 39  1  0  0  0  0
 12 40  1  0  0  0  0
 13 14  2  0  0  0  0
 13 18  1  0  0  0  0
 14 15  1  0  0  0  0
 14 41  1  0  0  0  0
 15 16  2  0  0  0  0
 15 42  1  0  0  0  0
 16 17  1  0  0  0  0
 17 18  2  0  0  0  0
 17 20  1  0  0  0  0
 18 19  1  0  0  0  0
 19 22  2  0  0  0  0
 19 43  1  0  0  0  0
 20 21  2  0  0  0  0
 20 44  1  0  0  0  0
 21 22  1  0  0  0  0
 21 45  1  0  0  0  0
 22 23  1  0  0  0  0
 23 24  1  0  0  0  0
 24 46  1  0  0  0  0
 24 47  1  0  0  0  0
 24 48  1  0  0  0  0
M  CHG  1   4   1
M  END
$$$$
