QLW
 OpenBabel04111918163D

 49 51  0  0  1  0  0  0  0  0999 V2000
  -21.1137   14.9543    9.3284 C   0  0  0  0  0  0  0  0  0  0  0  0
  -21.3453   13.4699    9.2844 N   0  0  0  0  0  0  0  0  0  0  0  0
  -22.7234   12.9971    8.9572 C   0  0  0  0  0  0  0  0  0  0  0  0
  -20.3487   12.6724    9.4582 C   0  0  0  0  0  0  0  0  0  0  0  0
  -18.9813   13.1839    9.7561 C   0  0  0  0  0  0  0  0  0  0  0  0
  -17.9709   12.3381    9.9021 C   0  0  0  0  0  0  0  0  0  0  0  0
  -20.4746   11.1978    9.3493 C   0  0  0  0  0  0  0  0  0  0  0  0
  -19.3889   10.4506    9.5095 C   0  0  0  0  0  0  0  0  0  0  0  0
  -18.1198   10.9611    9.7894 N   0  3  0  0  0  0  0  0  0  0  0  0
  -16.9734   10.0606    9.9427 C   0  0  0  0  0  0  0  0  0  0  0  0
  -16.7738    9.2873    8.6758 C   0  0  2  0  0  0  0  0  0  0  0  0
  -16.3201    9.9412    7.5345 C   0  0  0  0  0  0  0  0  0  0  0  0
  -16.1435    9.2332    6.3607 C   0  0  0  0  0  0  0  0  0  0  0  0
  -17.0775    7.9287    8.6385 C   0  0  0  0  0  0  0  0  0  0  0  0
  -16.9150    7.2206    7.4641 C   0  0  0  0  0  0  0  0  0  0  0  0
  -16.4494    7.8776    6.3323 C   0  0  2  0  0  0  0  0  0  0  0  0
  -16.2407    7.0976    5.0853 C   0  0  0  0  0  0  0  0  0  0  0  0
  -17.4304    7.1561    4.1576 C   0  0  0  0  0  0  0  0  0  0  0  0
  -17.1518    6.2803    2.9856 C   0  0  0  0  0  0  0  0  0  0  0  0
  -16.0258    6.5091    2.1960 C   0  0  0  0  0  0  0  0  0  0  0  0
  -15.7742    5.6657    1.1010 C   0  0  0  0  0  0  0  0  0  0  0  0
  -16.6403    4.6327    0.8234 C   0  0  0  0  0  0  0  0  0  0  0  0
  -17.7694    4.4014    1.6056 C   0  0  0  0  0  0  0  0  0  0  0  0
  -18.0234    5.2375    2.7024 C   0  0  0  0  0  0  0  0  0  0  0  0
  -22.0303   15.4877    9.1756 H   0  0  0  0  0  0  0  0  0  0  0  0
  -20.3843   15.1935    8.5372 H   0  0  0  0  0  0  0  0  0  0  0  0
  -20.6770   15.2018   10.3080 H   0  0  0  0  0  0  0  0  0  0  0  0
  -22.7463   11.8942    8.9792 H   0  0  0  0  0  0  0  0  0  0  0  0
  -22.9888   13.3016    7.9529 H   0  0  0  0  0  0  0  0  0  0  0  0
  -23.4333   13.3398    9.6938 H   0  0  0  0  0  0  0  0  0  0  0  0
  -18.8748   14.2439    9.8370 H   0  0  0  0  0  0  0  0  0  0  0  0
  -16.9725   12.7445   10.1228 H   0  0  0  0  0  0  0  0  0  0  0  0
  -21.4224   10.7846    9.1384 H   0  0  0  0  0  0  0  0  0  0  0  0
  -19.4910    9.3622    9.4096 H   0  0  0  0  0  0  0  0  0  0  0  0
  -17.1512    9.3539   10.7624 H   0  0  0  0  0  0  0  0  0  0  0  0
  -16.0506   10.6171   10.1468 H   0  0  0  0  0  0  0  0  0  0  0  0
  -16.1029   11.0010    7.5688 H   0  0  0  0  0  0  0  0  0  0  0  0
  -15.7568    9.7316    5.4792 H   0  0  0  0  0  0  0  0  0  0  0  0
  -17.4387    7.4235    9.5252 H   0  0  0  0  0  0  0  0  0  0  0  0
  -17.1341    6.1586    7.4343 H   0  0  0  0  0  0  0  0  0  0  0  0
  -16.0349    6.0608    5.3729 H   0  0  0  0  0  0  0  0  0  0  0  0
  -15.3539    7.5109    4.5953 H   0  0  0  0  0  0  0  0  0  0  0  0
  -17.6024    8.1706    3.7845 H   0  0  0  0  0  0  0  0  0  0  0  0
  -18.3371    6.7927    4.6538 H   0  0  0  0  0  0  0  0  0  0  0  0
  -15.3517    7.3295    2.4262 H   0  0  0  0  0  0  0  0  0  0  0  0
  -14.8948    5.8532    0.5011 H   0  0  0  0  0  0  0  0  0  0  0  0
  -16.4436    3.9826   -0.0255 H   0  0  0  0  0  0  0  0  0  0  0  0
  -18.4456    3.6031    1.3891 H   0  0  0  0  0  0  0  0  0  0  0  0
  -18.8978    5.0696    3.3243 H   0  0  0  0  0  0  0  0  0  0  0  0
  1  2  1  0  0  0  0
  1 25  1  0  0  0  0
  1 26  1  0  0  0  0
  1 27  1  0  0  0  0
  2  3  1  0  0  0  0
  2  4  2  0  0  0  0
  3 28  1  0  0  0  0
  3 29  1  0  0  0  0
  3 30  1  0  0  0  0
  4  5  1  0  0  0  0
  4  7  1  0  0  0  0
  5  6  1  0  0  0  0
  5 31  1  0  0  0  0
  6  9  1  0  0  0  0
  6 32  1  0  0  0  0
  7  8  1  0  0  0  0
  7 33  1  0  0  0  0
  8  9  1  0  0  0  0
  8 34  1  0  0  0  0
  9 10  1  0  0  0  0
 10 35  1  0  0  0  0
 10 36  1  0  0  0  0
 11 10  1  6  0  0  0
 11 12  1  0  0  0  0
 11 14  1  0  0  0  0
 12 13  1  0  0  0  0
 12 37  1  0  0  0  0
 13 16  1  0  0  0  0
 13 38  1  0  0  0  0
 14 15  1  0  0  0  0
 14 39  1  0  0  0  0
 15 16  1  0  0  0  0
 15 40  1  0  0  0  0
 16 17  1  1  0  0  0
 17 18  1  0  0  0  0
 17 41  1  0  0  0  0
 17 42  1  0  0  0  0
 18 19  1  0  0  0  0
 18 43  1  0  0  0  0
 18 44  1  0  0  0  0
 19 20  1  0  0  0  0
 19 24  1  0  0  0  0
 20 21  1  0  0  0  0
 20 45  1  0  0  0  0
 21 22  1  0  0  0  0
 21 46  1  0  0  0  0
 22 23  1  0  0  0  0
 22 47  1  0  0  0  0
 23 24  1  0  0  0  0
 23 48  1  0  0  0  0
 24 49  1  0  0  0  0
M  CHG  1   9   1
M  END
$$$$
