QMR
 OpenBabel04111917403D

 30 33  0  0  1  0  0  0  0  0999 V2000
   46.4116   -4.1556   13.8438 C   0  0  0  0  0  0  0  0  0  0  0  0
   44.8981   -4.2133   13.9184 N   0  3  0  0  0  0  0  0  0  0  0  0
   44.1214   -3.2622   13.0259 C   0  0  0  0  0  0  0  0  0  0  0  0
   44.7959   -1.8823   12.9504 C   0  0  2  0  0  0  0  0  0  0  0  0
   46.2545   -2.0671   12.4899 C   0  0  0  0  0  0  0  0  0  0  0  0
   46.9059   -2.7060   13.7269 C   0  0  1  0  0  0  0  0  0  0  0  0
   46.2818   -1.8422   14.7929 C   0  0  0  0  0  0  0  0  0  0  0  0
   46.7207   -1.5746   16.0703 C   0  0  0  0  0  0  0  0  0  0  0  0
   45.9341   -0.7981   16.9085 C   0  0  0  0  0  0  0  0  0  0  0  0
   46.3812   -0.5396   18.1447 N   0  0  0  0  0  0  0  0  0  0  0  0
   45.5876    0.2289   18.9221 C   0  0  0  0  0  0  0  0  0  0  0  0
   44.3676    0.7066   18.4873 C   0  0  0  0  0  0  0  0  0  0  0  0
   43.8855    0.4381   17.2524 N   0  0  0  0  0  0  0  0  0  0  0  0
   44.6721   -0.3000   16.4507 C   0  0  0  0  0  0  0  0  0  0  0  0
   44.2373   -0.5985   15.1630 C   0  0  0  0  0  0  0  0  0  0  0  0
   45.0478   -1.3562   14.3397 C   0  0  0  0  0  0  0  0  0  0  0  0
   46.7079   -4.7527   12.9762 H   0  0  0  0  0  0  0  0  0  0  0  0
   46.7803   -4.6330   14.7577 H   0  0  0  0  0  0  0  0  0  0  0  0
   44.5803   -5.1780   13.7564 H   0  0  0  0  0  0  0  0  0  0  0  0
   43.1188   -3.1917   13.4609 H   0  0  0  0  0  0  0  0  0  0  0  0
   44.0610   -3.7349   12.0414 H   0  0  0  0  0  0  0  0  0  0  0  0
   44.2550   -1.1807   12.3104 H   0  0  0  0  0  0  0  0  0  0  0  0
   46.7176   -1.0938   12.2752 H   0  0  0  0  0  0  0  0  0  0  0  0
   46.3461   -2.6889   11.5926 H   0  0  0  0  0  0  0  0  0  0  0  0
   47.9964   -2.6339   13.6993 H   0  0  0  0  0  0  0  0  0  0  0  0
   47.6708   -1.9602   16.4332 H   0  0  0  0  0  0  0  0  0  0  0  0
   45.9643    0.4543   19.9145 H   0  0  0  0  0  0  0  0  0  0  0  0
   43.7411    1.3195   19.1252 H   0  0  0  0  0  0  0  0  0  0  0  0
   43.2720   -0.2280   14.8276 H   0  0  0  0  0  0  0  0  0  0  0  0
   44.6343   -4.0004   14.8933 H   0  0  0  0  0  0  0  0  0  0  0  0
  1  2  1  0  0  0  0
  1  6  1  0  0  0  0
  1 17  1  0  0  0  0
  1 18  1  0  0  0  0
  2  3  1  0  0  0  0
  2 19  1  0  0  0  0
  2 30  1  0  0  0  0
  3  4  1  0  0  0  0
  3 20  1  0  0  0  0
  3 21  1  0  0  0  0
  4  5  1  0  0  0  0
  4 16  1  0  0  0  0
  4 22  1  6  0  0  0
  5  6  1  0  0  0  0
  5 23  1  0  0  0  0
  5 24  1  0  0  0  0
  6  7  1  0  0  0  0
  6 25  1  6  0  0  0
  7  8  2  0  0  0  0
  7 16  1  0  0  0  0
  8  9  1  0  0  0  0
  8 26  1  0  0  0  0
  9 10  2  0  0  0  0
  9 14  1  0  0  0  0
 10 11  1  0  0  0  0
 11 12  2  0  0  0  0
 11 27  1  0  0  0  0
 12 13  1  0  0  0  0
 12 28  1  0  0  0  0
 13 14  2  0  0  0  0
 14 15  1  0  0  0  0
 15 16  2  0  0  0  0
 15 29  1  0  0  0  0
M  CHG  1   2   1
M  END
$$$$
