QWS
 OpenBabel04111920173D

 45 47  0  0  0  0  0  0  0  0999 V2000
    7.3839    4.3509   24.1022 N   0  3  0  0  0  0  0  0  0  0  0  0
    7.8775    4.7627   22.9109 N   0  0  0  0  0  0  0  0  0  0  0  0
    6.7868    5.1368   22.2191 C   0  0  0  0  0  0  0  0  0  0  0  0
    5.5989    4.9298   22.9556 C   0  0  0  0  0  0  0  0  0  0  0  0
    6.0194    4.3975   24.1424 C   0  0  0  0  0  0  0  0  0  0  0  0
    4.2956    5.1624   22.5769 N   0  0  0  0  0  0  0  0  0  0  0  0
    3.2306    4.4847   23.1263 C   0  0  0  0  0  0  0  0  0  0  0  0
    2.1069    4.6069   22.3444 N   0  0  0  0  0  0  0  0  0  0  0  0
    3.2373    3.8005   24.1236 O   0  0  0  0  0  0  0  0  0  0  0  0
    6.8989    5.6226   20.8599 C   0  0  0  0  0  0  0  0  0  0  0  0
    8.1553    5.5598   20.3336 N   0  0  0  0  0  0  0  0  0  0  0  0
    5.9356    6.0702   20.2199 O   0  0  0  0  0  0  0  0  0  0  0  0
    8.2281    3.8738   25.1264 C   0  0  0  0  0  0  0  0  0  0  0  0
    7.7711    2.7706   25.8545 C   0  0  0  0  0  0  0  0  0  0  0  0
    8.5380    2.2475   26.8833 C   0  0  0  0  0  0  0  0  0  0  0  0
    9.7310    2.8527   27.2370 C   0  0  0  0  0  0  0  0  0  0  0  0
    9.4531    4.4787   25.4484 C   0  0  0  0  0  0  0  0  0  0  0  0
   10.1906    3.9589   26.5320 C   0  0  0  0  0  0  0  0  0  0  0  0
   11.3934    4.5357   26.9113 C   0  0  0  0  0  0  0  0  0  0  0  0
   11.8740    5.6480   26.2365 C   0  0  0  0  0  0  0  0  0  0  0  0
   11.1654    6.1807   25.1744 C   0  0  0  0  0  0  0  0  0  0  0  0
    9.9673    5.5972   24.7886 C   0  0  0  0  0  0  0  0  0  0  0  0
   11.7150    7.2845   24.6028 O   0  0  0  0  0  0  0  0  0  0  0  0
   11.1847    7.6688   23.3346 C   0  0  0  0  0  0  0  0  0  0  0  0
   10.1422    8.7520   23.5260 C   0  0  0  0  0  0  0  0  0  0  0  0
   12.3332    8.2561   22.5435 C   0  0  0  0  0  0  0  0  0  0  0  0
    5.4487    4.1140   25.0138 H   0  0  0  0  0  0  0  0  0  0  0  0
    4.1289    5.8370   21.8405 H   0  0  0  0  0  0  0  0  0  0  0  0
    1.2588    4.1303   22.6154 H   0  0  0  0  0  0  0  0  0  0  0  0
    2.1207    5.1234   21.4865 H   0  0  0  0  0  0  0  0  0  0  0  0
    8.3447    5.8767   19.3995 H   0  0  0  0  0  0  0  0  0  0  0  0
    8.9083    5.1601   20.8984 H   0  0  0  0  0  0  0  0  0  0  0  0
    6.8426    2.2936   25.5777 H   0  0  0  0  0  0  0  0  0  0  0  0
    8.1933    1.3723   27.4182 H   0  0  0  0  0  0  0  0  0  0  0  0
   10.3146    2.4560   28.0632 H   0  0  0  0  0  0  0  0  0  0  0  0
   11.9651    4.1133   27.7350 H   0  0  0  0  0  0  0  0  0  0  0  0
   12.8083    6.0982   26.5437 H   0  0  0  0  0  0  0  0  0  0  0  0
    9.4076    6.0078   23.9635 H   0  0  0  0  0  0  0  0  0  0  0  0
   10.7722    6.8174   22.7824 H   0  0  0  0  0  0  0  0  0  0  0  0
    9.7223    9.0489   22.5596 H   0  0  0  0  0  0  0  0  0  0  0  0
   10.6001    9.6272   23.9988 H   0  0  0  0  0  0  0  0  0  0  0  0
    9.3390    8.3981   24.1747 H   0  0  0  0  0  0  0  0  0  0  0  0
   11.9944    8.5670   21.5501 H   0  0  0  0  0  0  0  0  0  0  0  0
   13.1362    7.5212   22.4422 H   0  0  0  0  0  0  0  0  0  0  0  0
   12.7359    9.1283   23.0705 H   0  0  0  0  0  0  0  0  0  0  0  0
  1  2  1  0  0  0  0
  1  5  2  0  0  0  0
  1 13  1  0  0  0  0
  2  3  1  0  0  0  0
  3  4  2  0  0  0  0
  3 10  1  0  0  0  0
  4  5  1  0  0  0  0
  4  6  1  0  0  0  0
  5 27  1  0  0  0  0
  6  7  1  0  0  0  0
  6 28  1  0  0  0  0
  7  8  1  0  0  0  0
  7  9  2  0  0  0  0
  8 29  1  0  0  0  0
  8 30  1  0  0  0  0
 10 11  1  0  0  0  0
 10 12  2  0  0  0  0
 11 31  1  0  0  0  0
 11 32  1  0  0  0  0
 13 14  2  0  0  0  0
 13 17  1  0  0  0  0
 14 15  1  0  0  0  0
 14 33  1  0  0  0  0
 15 16  2  0  0  0  0
 15 34  1  0  0  0  0
 16 18  1  0  0  0  0
 16 35  1  0  0  0  0
 17 18  2  0  0  0  0
 17 22  1  0  0  0  0
 18 19  1  0  0  0  0
 19 20  2  0  0  0  0
 19 36  1  0  0  0  0
 20 21  1  0  0  0  0
 20 37  1  0  0  0  0
 21 22  2  0  0  0  0
 21 23  1  0  0  0  0
 22 38  1  0  0  0  0
 23 24  1  0  0  0  0
 24 25  1  0  0  0  0
 24 26  1  0  0  0  0
 24 39  1  0  0  0  0
 25 40  1  0  0  0  0
 25 41  1  0  0  0  0
 25 42  1  0  0  0  0
 26 43  1  0  0  0  0
 26 44  1  0  0  0  0
 26 45  1  0  0  0  0
M  CHG  1   1   1
M  END
$$$$
