R2S
 OpenBabel04111921463D

 32 35  0  0  0  0  0  0  0  0999 V2000
  -16.7055   16.8460  -14.2087 Cl  0  0  0  0  0  0  0  0  0  0  0  0
  -15.3535   17.4548  -13.3318 C   0  0  0  0  0  0  0  0  0  0  0  0
  -15.2619   17.2107  -11.9627 C   0  0  0  0  0  0  0  0  0  0  0  0
  -14.1595   17.7319  -11.2774 C   0  0  0  0  0  0  0  0  0  0  0  0
  -13.1588   18.4799  -11.9097 C   0  0  0  0  0  0  0  0  0  0  0  0
  -13.2692   18.6992  -13.2932 C   0  0  0  0  0  0  0  0  0  0  0  0
  -14.3723   18.1856  -13.9992 C   0  0  0  0  0  0  0  0  0  0  0  0
  -12.1558   18.9465  -11.0668 N   0  0  0  0  0  0  0  0  0  0  0  0
  -12.3856   18.5549   -9.8381 C   0  0  0  0  0  0  0  0  0  0  0  0
  -11.5004   18.9812   -8.8274 N   0  0  0  0  0  0  0  0  0  0  0  0
  -11.3107   18.0417   -7.4647 S   0  0  0  0  0  0  0  0  0  0  0  0
  -12.5596   18.0091   -6.7333 O   0  0  0  0  0  0  0  0  0  0  0  0
  -10.0810   18.4741   -6.8341 O   0  0  0  0  0  0  0  0  0  0  0  0
  -10.9490   16.3810   -8.0134 C   0  0  0  0  0  0  0  0  0  0  0  0
  -10.0288   15.8961   -8.9241 C   0  0  0  0  0  0  0  0  0  0  0  0
  -10.1331   14.4808   -9.1353 C   0  0  0  0  0  0  0  0  0  0  0  0
   -9.4054   13.6154   -9.9907 C   0  0  0  0  0  0  0  0  0  0  0  0
   -9.6988   12.2503  -10.0248 C   0  0  0  0  0  0  0  0  0  0  0  0
  -10.7084   11.7252   -9.2309 C   0  0  0  0  0  0  0  0  0  0  0  0
  -11.4472   12.5556   -8.3832 C   0  0  0  0  0  0  0  0  0  0  0  0
  -11.1428   13.9278   -8.3450 C   0  0  0  0  0  0  0  0  0  0  0  0
  -11.9014   15.1215   -7.3665 S   0  0  0  0  0  0  0  0  0  0  0  0
  -13.7896   17.6096   -9.6118 S   0  0  0  0  0  0  0  0  0  0  0  0
  -16.0271   16.6422  -11.4392 H   0  0  0  0  0  0  0  0  0  0  0  0
  -12.5082   19.2726  -13.8164 H   0  0  0  0  0  0  0  0  0  0  0  0
  -14.4587   18.3670  -15.0688 H   0  0  0  0  0  0  0  0  0  0  0  0
  -10.7079   19.5498   -9.1127 H   0  0  0  0  0  0  0  0  0  0  0  0
   -9.3178   16.5349   -9.4353 H   0  0  0  0  0  0  0  0  0  0  0  0
   -8.6145   14.0086  -10.6179 H   0  0  0  0  0  0  0  0  0  0  0  0
   -9.1296   11.5895  -10.6796 H   0  0  0  0  0  0  0  0  0  0  0  0
  -10.9290   10.6598   -9.2631 H   0  0  0  0  0  0  0  0  0  0  0  0
  -12.2380   12.1433   -7.7644 H   0  0  0  0  0  0  0  0  0  0  0  0
  1  2  1  0  0  0  0
  2  3  2  0  0  0  0
  2  7  1  0  0  0  0
  3  4  1  0  0  0  0
  3 24  1  0  0  0  0
  4  5  2  0  0  0  0
  4 23  1  0  0  0  0
  5  6  1  0  0  0  0
  5  8  1  0  0  0  0
  6  7  2  0  0  0  0
  6 25  1  0  0  0  0
  7 26  1  0  0  0  0
  8  9  2  0  0  0  0
  9 10  1  0  0  0  0
  9 23  1  0  0  0  0
 10 11  1  0  0  0  0
 10 27  1  0  0  0  0
 11 12  2  0  0  0  0
 11 13  2  0  0  0  0
 11 14  1  0  0  0  0
 14 15  2  0  0  0  0
 14 22  1  0  0  0  0
 15 16  1  0  0  0  0
 15 28  1  0  0  0  0
 16 17  2  0  0  0  0
 16 21  1  0  0  0  0
 17 18  1  0  0  0  0
 17 29  1  0  0  0  0
 18 19  2  0  0  0  0
 18 30  1  0  0  0  0
 19 20  1  0  0  0  0
 19 31  1  0  0  0  0
 20 21  2  0  0  0  0
 20 32  1  0  0  0  0
 21 22  1  0  0  0  0
M  END
$$$$
