R47
 OpenBabel04111919073D

 84 87  0  0  1  0  0  0  0  0999 V2000
   10.2013   26.6990    4.2361 O   0  0  0  0  0  0  0  0  0  0  0  0
    6.9004   22.6921    5.4987 N   0  0  0  0  0  0  0  0  0  0  0  0
    8.0785   22.9789    4.8274 O   0  0  0  0  0  0  0  0  0  0  0  0
    9.2285   26.8556    3.4636 C   0  0  0  0  0  0  0  0  0  0  0  0
    8.8413   25.8243    2.4641 C   0  0  2  0  0  0  0  0  0  0  0  0
    9.0066   24.4547    3.1178 C   0  0  0  0  0  0  0  0  0  0  0  0
    6.5696   24.4062    4.0911 C   0  0  0  0  0  0  0  0  0  0  0  0
    5.9901   23.5648    5.0515 C   0  0  0  0  0  0  0  0  0  0  0  0
    4.6244   23.4929    5.5133 C   0  0  0  0  0  0  0  0  0  0  0  0
    4.2605   22.7011    6.6127 C   0  0  0  0  0  0  0  0  0  0  0  0
    2.9287   22.6651    7.0128 C   0  0  0  0  0  0  0  0  0  0  0  0
    1.9445   23.3949    6.3106 C   0  0  0  0  0  0  0  0  0  0  0  0
    2.3319   24.1547    5.1922 C   0  0  0  0  0  0  0  0  0  0  0  0
    3.6581   24.2078    4.7935 C   0  0  0  0  0  0  0  0  0  0  0  0
    7.8861   24.0348    3.9896 C   0  0  0  0  0  0  0  0  0  0  0  0
   -2.7866   25.4190    6.1016 Cl  0  0  0  0  0  0  0  0  0  0  0  0
   -1.7056   24.2039    6.6405 C   0  0  0  0  0  0  0  0  0  0  0  0
   -0.3622   24.3294    6.3140 C   0  0  0  0  0  0  0  0  0  0  0  0
   -2.2072   23.1044    7.3340 C   0  0  0  0  0  0  0  0  0  0  0  0
   -1.3439   22.0946    7.7098 C   0  0  0  0  0  0  0  0  0  0  0  0
    0.0034   22.2332    7.3970 C   0  0  0  0  0  0  0  0  0  0  0  0
    0.5261   23.3289    6.6910 C   0  0  0  0  0  0  0  0  0  0  0  0
    9.7779   25.9719    1.2592 C   0  0  0  0  0  0  0  0  0  0  0  0
    9.2194   24.9935   -0.2224 P   0  0  2  0  0  0  0  0  0  0  0  0
    7.7496   25.3191   -0.3799 O   0  0  0  0  0  0  0  0  0  0  0  0
    9.5952   23.5369   -0.0611 O   0  0  0  0  0  0  0  0  0  0  0  0
   10.1950   25.7324   -1.5634 C   0  0  0  0  0  0  0  0  0  0  0  0
   11.6002   25.7265   -1.5791 C   0  0  0  0  0  0  0  0  0  0  0  0
   12.2847   26.2836   -2.6872 C   0  0  0  0  0  0  0  0  0  0  0  0
   11.5423   26.7763   -3.7820 C   0  0  0  0  0  0  0  0  0  0  0  0
   12.1513   27.4545   -5.4645 Br  0  0  0  0  0  0  0  0  0  0  0  0
   10.1583   26.7797   -3.7498 C   0  0  0  0  0  0  0  0  0  0  0  0
    9.4881   26.2959   -2.6426 C   0  0  0  0  0  0  0  0  0  0  0  0
    8.5332   27.9845    3.4537 N   0  0  0  0  0  0  0  0  0  0  0  0
    8.8823   29.1215    4.2690 C   0  0  2  0  0  0  0  0  0  0  0  0
    8.0319   29.1331    5.5436 C   0  0  0  0  0  0  0  0  0  0  0  0
    6.8681   28.7742    5.5776 O   0  0  0  0  0  0  0  0  0  0  0  0
    8.7143   30.4118    3.4740 C   0  0  0  0  0  0  0  0  0  0  0  0
    9.7756   30.5182    2.3790 C   0  0  0  0  0  0  0  0  0  0  0  0
    9.6558   31.7888    1.5256 C   0  0  0  0  0  0  0  0  0  0  0  0
   10.5103   32.6896    1.7649 O   0  0  0  0  0  0  0  0  0  0  0  0
    8.7311   31.7860    0.6617 O   0  0  0  0  0  0  0  0  0  0  0  0
    8.6419   29.7292    6.6271 N   0  0  0  0  0  0  0  0  0  0  0  0
    7.9139   29.8874    7.8794 C   0  0  2  0  0  0  0  0  0  0  0  0
    6.7225   30.8140    7.6366 C   0  0  0  0  0  0  0  0  0  0  0  0
    5.6217   30.6236    8.1006 O   0  0  0  0  0  0  0  0  0  0  0  0
    8.7911   30.5290    8.9306 C   0  0  0  0  0  0  0  0  0  0  0  0
    9.7426   29.5215    9.5366 C   0  0  0  0  0  0  0  0  0  0  0  0
   10.3489   30.0656   10.8325 C   0  0  0  0  0  0  0  0  0  0  0  0
   10.6308   29.1852   11.6955 O   0  0  0  0  0  0  0  0  0  0  0  0
   10.5059   31.3172   10.8954 O   0  0  0  0  0  0  0  0  0  0  0  0
    7.0392   31.9722    6.9677 N   0  0  0  0  0  0  0  0  0  0  0  0
    7.7958   26.0341    2.1755 H   0  0  0  0  0  0  0  0  0  0  0  0
    9.9257   24.4426    3.7196 H   0  0  0  0  0  0  0  0  0  0  0  0
    9.0983   23.7124    2.3332 H   0  0  0  0  0  0  0  0  0  0  0  0
    6.1228   25.1747    3.4727 H   0  0  0  0  0  0  0  0  0  0  0  0
    5.0053   22.1073    7.1577 H   0  0  0  0  0  0  0  0  0  0  0  0
    2.6697   22.0584    7.8781 H   0  0  0  0  0  0  0  0  0  0  0  0
    1.5865   24.7023    4.6099 H   0  0  0  0  0  0  0  0  0  0  0  0
    3.9650   24.7852    3.9212 H   0  0  0  0  0  0  0  0  0  0  0  0
   -0.0268   25.1981    5.7471 H   0  0  0  0  0  0  0  0  0  0  0  0
   -3.2684   23.0564    7.5516 H   0  0  0  0  0  0  0  0  0  0  0  0
   -1.6918   21.2081    8.2353 H   0  0  0  0  0  0  0  0  0  0  0  0
    0.6645   21.4284    7.7046 H   0  0  0  0  0  0  0  0  0  0  0  0
   10.7946   25.6564    1.5366 H   0  0  0  0  0  0  0  0  0  0  0  0
    9.8432   27.0302    0.9489 H   0  0  0  0  0  0  0  0  0  0  0  0
   12.1412   25.2728   -0.7311 H   0  0  0  0  0  0  0  0  0  0  0  0
   13.3710   26.3003   -2.6420 H   0  0  0  0  0  0  0  0  0  0  0  0
    9.6152   27.1661   -4.6151 H   0  0  0  0  0  0  0  0  0  0  0  0
    8.4000   26.3336   -2.6101 H   0  0  0  0  0  0  0  0  0  0  0  0
    7.6999   28.0440    2.8490 H   0  0  0  0  0  0  0  0  0  0  0  0
    9.9265   29.0244    4.5883 H   0  0  0  0  0  0  0  0  0  0  0  0
    8.8013   31.2715    4.1429 H   0  0  0  0  0  0  0  0  0  0  0  0
    7.7183   30.4273    3.0133 H   0  0  0  0  0  0  0  0  0  0  0  0
    9.6910   29.6425    1.7212 H   0  0  0  0  0  0  0  0  0  0  0  0
   10.7651   30.4922    2.8534 H   0  0  0  0  0  0  0  0  0  0  0  0
    9.6277   29.9455    6.5859 H   0  0  0  0  0  0  0  0  0  0  0  0
    7.5132   28.9287    8.2065 H   0  0  0  0  0  0  0  0  0  0  0  0
    8.1619   30.9419    9.7248 H   0  0  0  0  0  0  0  0  0  0  0  0
    9.3811   31.3384    8.4820 H   0  0  0  0  0  0  0  0  0  0  0  0
   10.5411   29.3156    8.8179 H   0  0  0  0  0  0  0  0  0  0  0  0
    9.1900   28.5989    9.7471 H   0  0  0  0  0  0  0  0  0  0  0  0
    6.3127   32.6377    6.7691 H   0  0  0  0  0  0  0  0  0  0  0  0
    7.9805   32.1141    6.6248 H   0  0  0  0  0  0  0  0  0  0  0  0
  1  4  2  0  0  0  0
  2  3  1  0  0  0  0
  2  8  2  0  0  0  0
  3 15  1  0  0  0  0
  4  5  1  0  0  0  0
  4 34  1  0  0  0  0
  5  6  1  0  0  0  0
  5 23  1  0  0  0  0
  5 53  1  6  0  0  0
  6 15  1  0  0  0  0
  6 54  1  0  0  0  0
  6 55  1  0  0  0  0
  7  8  1  0  0  0  0
  7 15  2  0  0  0  0
  7 56  1  0  0  0  0
  8  9  1  0  0  0  0
  9 10  2  0  0  0  0
  9 14  1  0  0  0  0
 10 11  1  0  0  0  0
 10 57  1  0  0  0  0
 11 12  2  0  0  0  0
 11 58  1  0  0  0  0
 12 13  1  0  0  0  0
 12 22  1  0  0  0  0
 13 14  2  0  0  0  0
 13 59  1  0  0  0  0
 14 60  1  0  0  0  0
 16 17  1  0  0  0  0
 17 18  2  0  0  0  0
 17 19  1  0  0  0  0
 18 22  1  0  0  0  0
 18 61  1  0  0  0  0
 19 20  2  0  0  0  0
 19 62  1  0  0  0  0
 20 21  1  0  0  0  0
 20 63  1  0  0  0  0
 21 22  2  0  0  0  0
 21 64  1  0  0  0  0
 23 65  1  0  0  0  0
 23 66  1  0  0  0  0
 24 23  1  1  0  0  0
 24 25  2  0  0  0  0
 24 26  1  0  0  0  0
 24 27  1  0  0  0  0
 27 28  2  0  0  0  0
 27 33  1  0  0  0  0
 28 29  1  0  0  0  0
 28 67  1  0  0  0  0
 29 30  2  0  0  0  0
 29 68  1  0  0  0  0
 30 31  1  0  0  0  0
 30 32  1  0  0  0  0
 32 33  2  0  0  0  0
 32 69  1  0  0  0  0
 33 70  1  0  0  0  0
 34 35  1  0  0  0  0
 34 71  1  0  0  0  0
 35 36  1  0  0  0  0
 35 38  1  0  0  0  0
 35 72  1  1  0  0  0
 36 37  2  0  0  0  0
 36 43  1  0  0  0  0
 38 39  1  0  0  0  0
 38 73  1  0  0  0  0
 38 74  1  0  0  0  0
 39 40  1  0  0  0  0
 39 75  1  0  0  0  0
 39 76  1  0  0  0  0
 40 41  2  0  0  0  0
 40 42  1  0  0  0  0
 43 44  1  0  0  0  0
 43 77  1  0  0  0  0
 44 45  1  0  0  0  0
 44 47  1  0  0  0  0
 44 78  1  1  0  0  0
 45 46  2  0  0  0  0
 45 52  1  0  0  0  0
 47 48  1  0  0  0  0
 47 79  1  0  0  0  0
 47 80  1  0  0  0  0
 48 49  1  0  0  0  0
 48 81  1  0  0  0  0
 48 82  1  0  0  0  0
 49 50  2  0  0  0  0
 49 51  1  0  0  0  0
 52 83  1  0  0  0  0
 52 84  1  0  0  0  0
M  END
$$$$
