R4B
 OpenBabel04111919083D

 74 77  0  0  1  0  0  0  0  0999 V2000
   -9.6064   26.0363   -4.8122 O   0  0  0  0  0  0  0  0  0  0  0  0
   -6.1536   22.2907   -5.8810 N   0  0  0  0  0  0  0  0  0  0  0  0
   -7.3150   22.5720   -5.1935 O   0  0  0  0  0  0  0  0  0  0  0  0
   -8.6802   26.3099   -4.0585 C   0  0  0  0  0  0  0  0  0  0  0  0
   -8.2300   25.3824   -2.9396 C   0  0  2  0  0  0  0  0  0  0  0  0
   -8.2478   23.9391   -3.4451 C   0  0  0  0  0  0  0  0  0  0  0  0
   -5.7913   23.9791   -4.4116 C   0  0  0  0  0  0  0  0  0  0  0  0
   -5.2191   23.1261   -5.3964 C   0  0  0  0  0  0  0  0  0  0  0  0
   -3.8362   23.0821   -5.8474 C   0  0  0  0  0  0  0  0  0  0  0  0
   -3.4365   22.2549   -6.9154 C   0  0  0  0  0  0  0  0  0  0  0  0
   -2.1004   22.2241   -7.3392 C   0  0  0  0  0  0  0  0  0  0  0  0
   -1.1285   23.0120   -6.7021 C   0  0  0  0  0  0  0  0  0  0  0  0
   -1.5393   23.8131   -5.6300 C   0  0  0  0  0  0  0  0  0  0  0  0
   -2.8652   23.8609   -5.2168 C   0  0  0  0  0  0  0  0  0  0  0  0
   -7.0945   23.5803   -4.3109 C   0  0  0  0  0  0  0  0  0  0  0  0
    3.1564   20.4906   -8.3077 Cl  0  0  0  0  0  0  0  0  0  0  0  0
    2.3291   21.9226   -7.8282 C   0  0  0  0  0  0  0  0  0  0  0  0
    0.9673   21.8693   -7.5228 C   0  0  0  0  0  0  0  0  0  0  0  0
    3.0375   23.1181   -7.7351 C   0  0  0  0  0  0  0  0  0  0  0  0
    2.3772   24.2819   -7.3499 C   0  0  0  0  0  0  0  0  0  0  0  0
    1.0151   24.2320   -7.0609 C   0  0  0  0  0  0  0  0  0  0  0  0
    0.2887   23.0311   -7.1197 C   0  0  0  0  0  0  0  0  0  0  0  0
   -9.2451   25.5670   -1.8062 C   0  0  0  0  0  0  0  0  0  0  0  0
   -8.7128   24.8223   -0.2150 P   0  0  2  0  0  0  0  0  0  0  0  0
   -7.2727   25.2659   -0.0354 O   0  0  0  0  0  0  0  0  0  0  0  0
   -9.0413   23.3481   -0.3159 O   0  0  0  0  0  0  0  0  0  0  0  0
   -9.7777   25.5988    1.0170 C   0  0  0  0  0  0  0  0  0  0  0  0
   -9.2213   25.9759    2.2450 C   0  0  0  0  0  0  0  0  0  0  0  0
  -10.0123   26.5605    3.2322 C   0  0  0  0  0  0  0  0  0  0  0  0
  -11.3678   26.7694    2.9909 C   0  0  0  0  0  0  0  0  0  0  0  0
  -12.4431   27.5558    4.3338 Br  0  0  0  0  0  0  0  0  0  0  0  0
  -11.9415   26.3949    1.7757 C   0  0  0  0  0  0  0  0  0  0  0  0
  -11.1463   25.8038    0.7921 C   0  0  0  0  0  0  0  0  0  0  0  0
   -8.0751   27.5394   -4.0827 N   0  0  0  0  0  0  0  0  0  0  0  0
   -8.5136   28.5127   -5.0622 C   0  0  2  0  0  0  0  0  0  0  0  0
   -7.7549   28.3929   -6.3965 C   0  0  0  0  0  0  0  0  0  0  0  0
   -6.5952   27.9991   -6.4788 O   0  0  0  0  0  0  0  0  0  0  0  0
   -8.3591   29.9203   -4.5072 C   0  0  0  0  0  0  0  0  0  0  0  0
   -8.4542   28.9230   -7.4757 N   0  0  0  0  0  0  0  0  0  0  0  0
   -7.8325   28.9646   -8.7995 C   0  0  2  0  0  0  0  0  0  0  0  0
   -6.7456   30.0567   -8.7547 C   0  0  0  0  0  0  0  0  0  0  0  0
   -5.6124   29.9241   -9.2040 O   0  0  0  0  0  0  0  0  0  0  0  0
   -8.8655   29.3187   -9.8679 C   0  0  0  0  0  0  0  0  0  0  0  0
   -7.1716   31.2787   -8.2977 N   0  0  0  0  0  0  0  0  0  0  0  0
   -7.2328   25.6765   -2.5900 H   0  0  0  0  0  0  0  0  0  0  0  0
   -9.1681   23.7564   -4.0118 H   0  0  0  0  0  0  0  0  0  0  0  0
   -8.2508   23.2351   -2.6124 H   0  0  0  0  0  0  0  0  0  0  0  0
   -5.3075   24.7512   -3.8289 H   0  0  0  0  0  0  0  0  0  0  0  0
   -4.1702   21.6322   -7.4272 H   0  0  0  0  0  0  0  0  0  0  0  0
   -1.8438   21.5872   -8.1812 H   0  0  0  0  0  0  0  0  0  0  0  0
   -0.8221   24.4215   -5.0828 H   0  0  0  0  0  0  0  0  0  0  0  0
   -3.1158   24.5108   -4.3850 H   0  0  0  0  0  0  0  0  0  0  0  0
    0.4482   20.9144   -7.5709 H   0  0  0  0  0  0  0  0  0  0  0  0
    4.0993   23.1546   -7.9560 H   0  0  0  0  0  0  0  0  0  0  0  0
    2.9128   25.2213   -7.2654 H   0  0  0  0  0  0  0  0  0  0  0  0
    0.5231   25.1586   -6.7688 H   0  0  0  0  0  0  0  0  0  0  0  0
  -10.2049   25.1141   -2.0840 H   0  0  0  0  0  0  0  0  0  0  0  0
   -9.4331   26.6320   -1.6241 H   0  0  0  0  0  0  0  0  0  0  0  0
   -8.1611   25.7907    2.4122 H   0  0  0  0  0  0  0  0  0  0  0  0
   -9.5583   26.8364    4.1786 H   0  0  0  0  0  0  0  0  0  0  0  0
  -13.0006   26.5444    1.5872 H   0  0  0  0  0  0  0  0  0  0  0  0
  -11.5894   25.4834   -0.1467 H   0  0  0  0  0  0  0  0  0  0  0  0
   -7.1397   27.6215   -3.6859 H   0  0  0  0  0  0  0  0  0  0  0  0
   -9.5731   28.3406   -5.2673 H   0  0  0  0  0  0  0  0  0  0  0  0
   -8.7183   30.6684   -5.2205 H   0  0  0  0  0  0  0  0  0  0  0  0
   -7.3117   30.1452   -4.2798 H   0  0  0  0  0  0  0  0  0  0  0  0
   -8.9343   30.0240   -3.5809 H   0  0  0  0  0  0  0  0  0  0  0  0
   -9.4638   28.9561   -7.4070 H   0  0  0  0  0  0  0  0  0  0  0  0
   -7.3655   27.9971   -9.0149 H   0  0  0  0  0  0  0  0  0  0  0  0
   -8.3941   29.4334  -10.8499 H   0  0  0  0  0  0  0  0  0  0  0  0
   -9.3781   30.2613   -9.6390 H   0  0  0  0  0  0  0  0  0  0  0  0
   -9.6353   28.5438   -9.9428 H   0  0  0  0  0  0  0  0  0  0  0  0
   -6.4733   31.9983   -8.1744 H   0  0  0  0  0  0  0  0  0  0  0  0
   -8.0818   31.3887   -7.8755 H   0  0  0  0  0  0  0  0  0  0  0  0
  1  4  2  0  0  0  0
  2  3  1  0  0  0  0
  2  8  2  0  0  0  0
  3 15  1  0  0  0  0
  4  5  1  0  0  0  0
  4 34  1  0  0  0  0
  5  6  1  0  0  0  0
  5 23  1  0  0  0  0
  5 45  1  1  0  0  0
  6 15  1  0  0  0  0
  6 46  1  0  0  0  0
  6 47  1  0  0  0  0
  7  8  1  0  0  0  0
  7 15  2  0  0  0  0
  7 48  1  0  0  0  0
  8  9  1  0  0  0  0
  9 10  2  0  0  0  0
  9 14  1  0  0  0  0
 10 11  1  0  0  0  0
 10 49  1  0  0  0  0
 11 12  2  0  0  0  0
 11 50  1  0  0  0  0
 12 13  1  0  0  0  0
 12 22  1  0  0  0  0
 13 14  2  0  0  0  0
 13 51  1  0  0  0  0
 14 52  1  0  0  0  0
 16 17  1  0  0  0  0
 17 18  2  0  0  0  0
 17 19  1  0  0  0  0
 18 22  1  0  0  0  0
 18 53  1  0  0  0  0
 19 20  2  0  0  0  0
 19 54  1  0  0  0  0
 20 21  1  0  0  0  0
 20 55  1  0  0  0  0
 21 22  2  0  0  0  0
 21 56  1  0  0  0  0
 23 57  1  0  0  0  0
 23 58  1  0  0  0  0
 24 23  1  6  0  0  0
 24 25  2  0  0  0  0
 24 26  1  0  0  0  0
 24 27  1  0  0  0  0
 27 28  2  0  0  0  0
 27 33  1  0  0  0  0
 28 29  1  0  0  0  0
 28 59  1  0  0  0  0
 29 30  2  0  0  0  0
 29 60  1  0  0  0  0
 30 31  1  0  0  0  0
 30 32  1  0  0  0  0
 32 33  2  0  0  0  0
 32 61  1  0  0  0  0
 33 62  1  0  0  0  0
 34 35  1  0  0  0  0
 34 63  1  0  0  0  0
 35 36  1  0  0  0  0
 35 38  1  0  0  0  0
 35 64  1  6  0  0  0
 36 37  2  0  0  0  0
 36 39  1  0  0  0  0
 38 65  1  0  0  0  0
 38 66  1  0  0  0  0
 38 67  1  0  0  0  0
 39 40  1  0  0  0  0
 39 68  1  0  0  0  0
 40 41  1  0  0  0  0
 40 43  1  0  0  0  0
 40 69  1  6  0  0  0
 41 42  2  0  0  0  0
 41 44  1  0  0  0  0
 43 70  1  0  0  0  0
 43 71  1  0  0  0  0
 43 72  1  0  0  0  0
 44 73  1  0  0  0  0
 44 74  1  0  0  0  0
M  END
$$$$
