R4C
 OpenBabel04111919083D

 64 66  0  0  1  0  0  0  0  0999 V2000
   -8.0231   26.1891   -5.3503 O   0  0  0  0  0  0  0  0  0  0  0  0
   -4.4771   22.0989   -6.2645 N   0  0  0  0  0  0  0  0  0  0  0  0
   -5.6492   22.4840   -5.6638 O   0  0  0  0  0  0  0  0  0  0  0  0
   -6.9425   26.3271   -4.7927 C   0  0  0  0  0  0  0  0  0  0  0  0
   -6.4839   25.4767   -3.6242 C   0  0  2  0  0  0  0  0  0  0  0  0
   -6.5811   24.0139   -4.0327 C   0  0  0  0  0  0  0  0  0  0  0  0
   -4.0693   23.7920   -4.8206 C   0  0  0  0  0  0  0  0  0  0  0  0
   -3.5103   22.8837   -5.7572 C   0  0  0  0  0  0  0  0  0  0  0  0
   -2.1111   22.7368   -6.1521 C   0  0  0  0  0  0  0  0  0  0  0  0
   -1.0957   23.4697   -5.5177 C   0  0  0  0  0  0  0  0  0  0  0  0
    0.2395   23.2932   -5.8884 C   0  0  0  0  0  0  0  0  0  0  0  0
    0.5738   22.3980   -6.9086 C   0  0  0  0  0  0  0  0  0  0  0  0
   -0.4228   21.6607   -7.5406 C   0  0  0  0  0  0  0  0  0  0  0  0
   -1.7556   21.8320   -7.1647 C   0  0  0  0  0  0  0  0  0  0  0  0
   -5.4126   23.5087   -4.8024 C   0  0  0  0  0  0  0  0  0  0  0  0
   -7.5038   25.7740   -2.5206 C   0  0  0  0  0  0  0  0  0  0  0  0
   -7.1503   25.0114   -0.8815 P   0  0  2  0  0  0  0  0  0  0  0  0
   -5.7021   25.3335   -0.5461 O   0  0  0  0  0  0  0  0  0  0  0  0
   -7.6185   23.5732   -0.9290 O   0  0  0  0  0  0  0  0  0  0  0  0
   -8.2203   25.9614    0.1782 C   0  0  0  0  0  0  0  0  0  0  0  0
   -9.6070   25.9256    0.0161 C   0  0  0  0  0  0  0  0  0  0  0  0
  -10.4102   26.6663    0.8725 C   0  0  0  0  0  0  0  0  0  0  0  0
   -9.8145   27.4324    1.8739 C   0  0  0  0  0  0  0  0  0  0  0  0
  -10.8944   28.4323    3.0559 Br  0  0  0  0  0  0  0  0  0  0  0  0
   -8.4311   27.4836    2.0288 C   0  0  0  0  0  0  0  0  0  0  0  0
   -7.6304   26.7473    1.1697 C   0  0  0  0  0  0  0  0  0  0  0  0
   -6.0961   27.3654   -5.0700 N   0  0  0  0  0  0  0  0  0  0  0  0
   -6.4724   28.3999   -5.9916 C   0  0  2  0  0  0  0  0  0  0  0  0
   -6.0828   28.0818   -7.4491 C   0  0  0  0  0  0  0  0  0  0  0  0
   -5.0672   27.5035   -7.7518 O   0  0  0  0  0  0  0  0  0  0  0  0
   -5.7647   29.6958   -5.5805 C   0  0  0  0  0  0  0  0  0  0  0  0
   -6.9158   28.7015   -8.3777 N   0  0  0  0  0  0  0  0  0  0  0  0
   -6.6934   28.4869   -9.8063 C   0  0  2  0  0  0  0  0  0  0  0  0
   -5.4117   29.2085  -10.2669 C   0  0  0  0  0  0  0  0  0  0  0  0
   -4.8215   28.9213  -11.2891 O   0  0  0  0  0  0  0  0  0  0  0  0
   -7.8964   29.0009  -10.5854 C   0  0  0  0  0  0  0  0  0  0  0  0
   -5.0860   30.3363   -9.5580 N   0  0  0  0  0  0  0  0  0  0  0  0
   -5.4852   25.7586   -3.2777 H   0  0  0  0  0  0  0  0  0  0  0  0
   -7.4896   23.8777   -4.6278 H   0  0  0  0  0  0  0  0  0  0  0  0
   -6.6857   23.4030   -3.1388 H   0  0  0  0  0  0  0  0  0  0  0  0
   -3.5657   24.5313   -4.2221 H   0  0  0  0  0  0  0  0  0  0  0  0
   -1.3329   24.1689   -4.7219 H   0  0  0  0  0  0  0  0  0  0  0  0
    1.0181   23.8571   -5.3831 H   0  0  0  0  0  0  0  0  0  0  0  0
    1.6102   22.2626   -7.1865 H   0  0  0  0  0  0  0  0  0  0  0  0
   -0.1706   20.9562   -8.3264 H   0  0  0  0  0  0  0  0  0  0  0  0
   -2.5274   21.2470   -7.6600 H   0  0  0  0  0  0  0  0  0  0  0  0
   -8.4935   25.4319   -2.8493 H   0  0  0  0  0  0  0  0  0  0  0  0
   -7.5848   26.8595   -2.3797 H   0  0  0  0  0  0  0  0  0  0  0  0
  -10.0341   25.3040   -0.7690 H   0  0  0  0  0  0  0  0  0  0  0  0
  -11.4863   26.6262    0.7540 H   0  0  0  0  0  0  0  0  0  0  0  0
   -7.9625   28.0724    2.8045 H   0  0  0  0  0  0  0  0  0  0  0  0
   -6.5477   26.7562    1.2618 H   0  0  0  0  0  0  0  0  0  0  0  0
   -5.1458   27.3166   -4.7349 H   0  0  0  0  0  0  0  0  0  0  0  0
   -7.5511   28.5660   -5.9489 H   0  0  0  0  0  0  0  0  0  0  0  0
   -6.0076   30.5226   -6.2522 H   0  0  0  0  0  0  0  0  0  0  0  0
   -4.6748   29.5664   -5.5797 H   0  0  0  0  0  0  0  0  0  0  0  0
   -6.0666   29.9704   -4.5629 H   0  0  0  0  0  0  0  0  0  0  0  0
   -7.7697   29.1295   -8.0653 H   0  0  0  0  0  0  0  0  0  0  0  0
   -6.5452   27.4194  -10.0104 H   0  0  0  0  0  0  0  0  0  0  0  0
   -7.7363   28.9111  -11.6631 H   0  0  0  0  0  0  0  0  0  0  0  0
   -8.1062   30.0533  -10.3573 H   0  0  0  0  0  0  0  0  0  0  0  0
   -8.7881   28.4188  -10.3195 H   0  0  0  0  0  0  0  0  0  0  0  0
   -4.2297   30.8164   -9.7964 H   0  0  0  0  0  0  0  0  0  0  0  0
   -5.5791   30.5685   -8.7126 H   0  0  0  0  0  0  0  0  0  0  0  0
  1  4  2  0  0  0  0
  2  3  1  0  0  0  0
  2  8  2  0  0  0  0
  3 15  1  0  0  0  0
  4  5  1  0  0  0  0
  4 27  1  0  0  0  0
  5  6  1  0  0  0  0
  5 16  1  0  0  0  0
  5 38  1  1  0  0  0
  6 15  1  0  0  0  0
  6 39  1  0  0  0  0
  6 40  1  0  0  0  0
  7  8  1  0  0  0  0
  7 15  2  0  0  0  0
  7 41  1  0  0  0  0
  8  9  1  0  0  0  0
  9 10  2  0  0  0  0
  9 14  1  0  0  0  0
 10 11  1  0  0  0  0
 10 42  1  0  0  0  0
 11 12  2  0  0  0  0
 11 43  1  0  0  0  0
 12 13  1  0  0  0  0
 12 44  1  0  0  0  0
 13 14  2  0  0  0  0
 13 45  1  0  0  0  0
 14 46  1  0  0  0  0
 16 47  1  0  0  0  0
 16 48  1  0  0  0  0
 17 16  1  6  0  0  0
 17 18  2  0  0  0  0
 17 19  1  0  0  0  0
 17 20  1  0  0  0  0
 20 21  2  0  0  0  0
 20 26  1  0  0  0  0
 21 22  1  0  0  0  0
 21 49  1  0  0  0  0
 22 23  2  0  0  0  0
 22 50  1  0  0  0  0
 23 24  1  0  0  0  0
 23 25  1  0  0  0  0
 25 26  2  0  0  0  0
 25 51  1  0  0  0  0
 26 52  1  0  0  0  0
 27 28  1  0  0  0  0
 27 53  1  0  0  0  0
 28 29  1  0  0  0  0
 28 31  1  0  0  0  0
 28 54  1  1  0  0  0
 29 30  2  0  0  0  0
 29 32  1  0  0  0  0
 31 55  1  0  0  0  0
 31 56  1  0  0  0  0
 31 57  1  0  0  0  0
 32 33  1  0  0  0  0
 32 58  1  0  0  0  0
 33 34  1  0  0  0  0
 33 36  1  0  0  0  0
 33 59  1  6  0  0  0
 34 35  2  0  0  0  0
 34 37  1  0  0  0  0
 36 60  1  0  0  0  0
 36 61  1  0  0  0  0
 36 62  1  0  0  0  0
 37 63  1  0  0  0  0
 37 64  1  0  0  0  0
M  END
$$$$
