R5X
 OpenBabel04111921383D

 43 45  0  0  1  0  0  0  0  0999 V2000
   80.7792   71.4706   33.1222 C   0  0  0  0  0  0  0  0  0  0  0  0
   91.5369   70.8159   31.9053 C   0  0  0  0  0  0  0  0  0  0  0  0
   92.6495   70.2219   31.3373 C   0  0  0  0  0  0  0  0  0  0  0  0
   92.2815   71.4040   29.2662 C   0  0  0  0  0  0  0  0  0  0  0  0
   84.3085   73.3326   32.3917 C   0  0  0  0  0  0  0  0  0  0  0  0
   85.5484   73.8201   32.1358 C   0  0  0  0  0  0  0  0  0  0  0  0
   86.4223   73.1070   31.3148 C   0  0  0  0  0  0  0  0  0  0  0  0
   86.0414   71.9180   30.7075 C   0  0  0  0  0  0  0  0  0  0  0  0
   84.7801   71.4218   30.9554 C   0  0  0  0  0  0  0  0  0  0  0  0
   83.9360   72.1332   31.7967 C   0  0  0  0  0  0  0  0  0  0  0  0
   82.6670   71.6831   32.1144 N   0  3  0  0  0  0  0  0  0  0  0  0
   82.0319   70.7204   31.3885 N   0  0  0  0  0  0  0  0  0  0  0  0
   80.8709   70.6155   32.0246 C   0  0  0  0  0  0  0  0  0  0  0  0
   81.9258   72.1300   33.1427 C   0  0  0  0  0  0  0  0  0  0  0  0
   87.7347   73.7656   31.1015 C   0  0  1  0  0  0  0  0  0  0  0  0
   88.8038   72.9001   30.7684 N   0  0  0  0  0  0  0  0  0  0  0  0
   87.5827   74.7833   29.9755 C   0  0  0  0  0  0  0  0  0  0  0  0
   87.2456   74.4909   28.8426 O   0  0  0  0  0  0  0  0  0  0  0  0
   87.9666   76.0301   30.3710 N   0  0  0  0  0  0  0  0  0  0  0  0
   87.8719   77.0700   29.4270 O   0  0  0  0  0  0  0  0  0  0  0  0
   89.6299   72.3613   31.6985 C   0  0  0  0  0  0  0  0  0  0  0  0
   90.8036   71.6994   31.1244 C   0  0  0  0  0  0  0  0  0  0  0  0
   89.4853   72.4336   32.9014 O   0  0  0  0  0  0  0  0  0  0  0  0
   93.0197   70.5132   30.0284 C   0  0  0  0  0  0  0  0  0  0  0  0
   91.1718   71.9992   29.8280 C   0  0  0  0  0  0  0  0  0  0  0  0
   93.3921   69.3398   32.0719 N   0  0  0  0  0  0  0  0  0  0  0  0
   79.9469   71.5637   33.7998 H   0  0  0  0  0  0  0  0  0  0  0  0
   91.2502   70.6015   32.9296 H   0  0  0  0  0  0  0  0  0  0  0  0
   92.5608   71.6366   28.2556 H   0  0  0  0  0  0  0  0  0  0  0  0
   83.6415   73.8829   33.0284 H   0  0  0  0  0  0  0  0  0  0  0  0
   85.8526   74.7555   32.5821 H   0  0  0  0  0  0  0  0  0  0  0  0
   86.7222   71.3885   30.0546 H   0  0  0  0  0  0  0  0  0  0  0  0
   84.4627   70.4833   30.5160 H   0  0  0  0  0  0  0  0  0  0  0  0
   80.1135   69.9186   31.6887 H   0  0  0  0  0  0  0  0  0  0  0  0
   82.2522   72.8803   33.8531 H   0  0  0  0  0  0  0  0  0  0  0  0
   87.9637   74.2519   32.0508 H   0  0  0  0  0  0  0  0  0  0  0  0
   88.9722   72.7121   29.7982 H   0  0  0  0  0  0  0  0  0  0  0  0
   88.2383   76.2461   31.3246 H   0  0  0  0  0  0  0  0  0  0  0  0
   88.4579   76.7890   28.6939 H   0  0  0  0  0  0  0  0  0  0  0  0
   93.8969   70.0420   29.5946 H   0  0  0  0  0  0  0  0  0  0  0  0
   90.6170   72.7140   29.2372 H   0  0  0  0  0  0  0  0  0  0  0  0
   93.1187   69.1285   33.0241 H   0  0  0  0  0  0  0  0  0  0  0  0
   94.2055   68.9045   31.6568 H   0  0  0  0  0  0  0  0  0  0  0  0
  1 13  2  0  0  0  0
  1 14  1  0  0  0  0
  1 27  1  0  0  0  0
  2  3  2  0  0  0  0
  2 22  1  0  0  0  0
  2 28  1  0  0  0  0
  3 24  1  0  0  0  0
  3 26  1  0  0  0  0
  4 24  2  0  0  0  0
  4 25  1  0  0  0  0
  4 29  1  0  0  0  0
  5  6  2  0  0  0  0
  5 10  1  0  0  0  0
  5 30  1  0  0  0  0
  6  7  1  0  0  0  0
  6 31  1  0  0  0  0
  7  8  2  0  0  0  0
  7 15  1  0  0  0  0
  8  9  1  0  0  0  0
  8 32  1  0  0  0  0
  9 10  2  0  0  0  0
  9 33  1  0  0  0  0
 10 11  1  0  0  0  0
 11 12  1  0  0  0  0
 11 14  2  0  0  0  0
 12 13  1  0  0  0  0
 13 34  1  0  0  0  0
 14 35  1  0  0  0  0
 15 16  1  0  0  0  0
 15 17  1  0  0  0  0
 15 36  1  1  0  0  0
 16 21  1  0  0  0  0
 16 37  1  0  0  0  0
 17 18  2  0  0  0  0
 17 19  1  0  0  0  0
 19 20  1  0  0  0  0
 19 38  1  0  0  0  0
 20 39  1  0  0  0  0
 21 22  1  0  0  0  0
 21 23  2  0  0  0  0
 22 25  2  0  0  0  0
 24 40  1  0  0  0  0
 25 41  1  0  0  0  0
 26 42  1  0  0  0  0
 26 43  1  0  0  0  0
M  CHG  1  11   1
M  END
$$$$
