RBF
 OpenBabel04111923083D

 47 49  0  0  1  0  0  0  0  0999 V2000
    1.6479    3.6066   89.0597 N   0  0  0  0  0  0  0  0  0  0  0  0
    0.5003    2.9675   88.6632 C   0  0  0  0  0  0  0  0  0  0  0  0
   -0.3327    3.5201   87.9340 O   0  0  0  0  0  0  0  0  0  0  0  0
    0.2553    1.6930   89.0529 N   0  3  0  0  0  0  0  0  0  0  0  0
    1.0584    0.9485   89.8724 C   0  0  0  0  0  0  0  0  0  0  0  0
    0.7819   -0.1747   90.2220 O   0  0  0  0  0  0  0  0  0  0  0  0
    2.3131    1.6473   90.2973 C   0  0  0  0  0  0  0  0  0  0  0  0
    3.1634    1.0358   91.0740 N   0  0  0  0  0  0  0  0  0  0  0  0
    4.3408    1.7139   91.4495 C   0  0  0  0  0  0  0  0  0  0  0  0
    5.2308    1.0382   92.2944 C   0  0  0  0  0  0  0  0  0  0  0  0
    6.4268    1.6329   92.7180 C   0  0  0  0  0  0  0  0  0  0  0  0
    7.3604    0.8808   93.6238 C   0  0  0  0  0  0  0  0  0  0  0  0
    6.7364    2.9282   92.2840 C   0  0  0  0  0  0  0  0  0  0  0  0
    7.9976    3.6329   92.6998 C   0  0  0  0  0  0  0  0  0  0  0  0
    5.8489    3.5973   91.4343 C   0  0  0  0  0  0  0  0  0  0  0  0
    4.6428    3.0225   91.0051 C   0  0  0  0  0  0  0  0  0  0  0  0
    3.7237    3.6901   90.1723 N   0  3  0  0  0  0  0  0  0  0  0  0
    2.5451    3.0472   89.8051 C   0  0  0  0  0  0  0  0  0  0  0  0
    4.0069    5.0477   89.6987 C   0  0  0  0  0  0  0  0  0  0  0  0
    4.3526    5.0535   88.1994 C   0  0  2  0  0  0  0  0  0  0  0  0
    5.7729    4.9075   88.0234 O   0  0  0  0  0  0  0  0  0  0  0  0
    3.8883    6.3674   87.5471 C   0  0  2  0  0  0  0  0  0  0  0  0
    4.5582    7.4535   88.2069 O   0  0  0  0  0  0  0  0  0  0  0  0
    2.3594    6.5509   87.5943 C   0  0  2  0  0  0  0  0  0  0  0  0
    1.7349    5.3631   87.1380 O   0  0  0  0  0  0  0  0  0  0  0  0
    1.8385    7.6786   86.6999 C   0  0  0  0  0  0  0  0  0  0  0  0
    2.7572    8.0717   85.6871 O   0  0  0  0  0  0  0  0  0  0  0  0
   -0.5977    1.2893   88.7257 H   0  0  0  0  0  0  0  0  0  0  0  0
    4.9755    0.0296   92.6202 H   0  0  0  0  0  0  0  0  0  0  0  0
    6.9756   -0.1139   93.8660 H   0  0  0  0  0  0  0  0  0  0  0  0
    7.4908    1.4271   94.5630 H   0  0  0  0  0  0  0  0  0  0  0  0
    8.3323    0.7542   93.1370 H   0  0  0  0  0  0  0  0  0  0  0  0
    8.0640    4.6374   92.2675 H   0  0  0  0  0  0  0  0  0  0  0  0
    8.8717    3.0713   92.3595 H   0  0  0  0  0  0  0  0  0  0  0  0
    8.0231    3.7453   93.7884 H   0  0  0  0  0  0  0  0  0  0  0  0
    6.1476    4.5913   91.1228 H   0  0  0  0  0  0  0  0  0  0  0  0
    4.7994    5.5651   90.2417 H   0  0  0  0  0  0  0  0  0  0  0  0
    3.1217    5.6472   89.9222 H   0  0  0  0  0  0  0  0  0  0  0  0
    3.9063    4.2030   87.6744 H   0  0  0  0  0  0  0  0  0  0  0  0
    6.1851    5.7100   88.3926 H   0  0  0  0  0  0  0  0  0  0  0  0
    4.2304    6.3324   86.5063 H   0  0  0  0  0  0  0  0  0  0  0  0
    4.2170    8.2973   87.8668 H   0  0  0  0  0  0  0  0  0  0  0  0
    2.0089    6.7642   88.6139 H   0  0  0  0  0  0  0  0  0  0  0  0
    1.8389    4.6864   87.8350 H   0  0  0  0  0  0  0  0  0  0  0  0
    1.6020    8.5561   87.3061 H   0  0  0  0  0  0  0  0  0  0  0  0
    0.9227    7.3580   86.1905 H   0  0  0  0  0  0  0  0  0  0  0  0
    3.5920    8.3491   86.0915 H   0  0  0  0  0  0  0  0  0  0  0  0
  1  2  1  0  0  0  0
  1 18  1  0  0  0  0
  2  3  2  0  0  0  0
  2  4  1  0  0  0  0
  4  5  1  0  0  0  0
  4 28  1  0  0  0  0
  5  6  2  0  0  0  0
  5  7  1  0  0  0  0
  7  8  2  0  0  0  0
  7 18  1  0  0  0  0
  8  9  1  0  0  0  0
  9 10  2  0  0  0  0
  9 16  1  0  0  0  0
 10 11  1  0  0  0  0
 10 29  1  0  0  0  0
 11 12  1  0  0  0  0
 11 13  2  0  0  0  0
 12 30  1  0  0  0  0
 12 31  1  0  0  0  0
 12 32  1  0  0  0  0
 13 14  1  0  0  0  0
 13 15  1  0  0  0  0
 14 33  1  0  0  0  0
 14 34  1  0  0  0  0
 14 35  1  0  0  0  0
 15 16  2  0  0  0  0
 15 36  1  0  0  0  0
 16 17  1  0  0  0  0
 17 18  2  0  0  0  0
 17 19  1  0  0  0  0
 19 20  1  0  0  0  0
 19 37  1  0  0  0  0
 19 38  1  0  0  0  0
 20 21  1  0  0  0  0
 20 22  1  0  0  0  0
 20 39  1  6  0  0  0
 21 40  1  0  0  0  0
 22 23  1  0  0  0  0
 22 24  1  0  0  0  0
 22 41  1  6  0  0  0
 23 42  1  0  0  0  0
 24 25  1  0  0  0  0
 24 26  1  0  0  0  0
 24 43  1  1  0  0  0
 25 44  1  0  0  0  0
 26 27  1  0  0  0  0
 26 45  1  0  0  0  0
 26 46  1  0  0  0  0
 27 47  1  0  0  0  0
M  CHG  2   4   1  17   1
M  END
$$$$
