RDC
 OpenBabel04111918443D

 41 43  0  0  1  0  0  0  0  0999 V2000
   10.9287   -4.7115   12.3198 C   0  0  0  0  0  0  0  0  0  0  0  0
    9.5745   -5.2562   12.7428 C   0  0  0  0  0  0  0  0  0  0  0  0
    8.5026   -4.3109   12.8341 C   0  0  0  0  0  0  0  0  0  0  0  0
    7.2569   -4.8555   13.2261 C   0  0  0  0  0  0  0  0  0  0  0  0
    7.0670   -6.2081   13.4816 C   0  0  0  0  0  0  0  0  0  0  0  0
    8.1246   -7.1054   13.3711 C   0  0  0  0  0  0  0  0  0  0  0  0
    9.4139   -6.6515   13.0351 C   0  0  0  0  0  0  0  0  0  0  0  0
   10.5510   -7.6511   12.9285 C   0  0  0  0  0  0  0  0  0  0  0  0
   10.7988   -8.5868   14.1088 C   0  0  0  0  0  0  0  0  0  0  0  0
   11.0367   -8.1015   15.4889 C   0  0  0  0  0  0  0  0  0  0  0  0
   11.0366   -6.8132   15.8581 C   0  0  0  0  0  0  0  0  0  0  0  0
   11.4127   -6.3919   17.1797 C   0  0  0  0  0  0  0  0  0  0  0  0
   11.8266   -5.1401   17.4113 C   0  0  0  0  0  0  0  0  0  0  0  0
   12.0064   -4.0834   16.4054 C   0  0  2  0  0  0  0  0  0  0  0  0
   13.3146   -4.0793   15.6379 C   0  0  1  0  0  0  0  0  0  0  0  0
   13.4842   -3.4936   14.2703 C   0  0  0  0  0  0  0  0  0  0  0  0
   13.1387   -4.4592   13.1381 C   0  0  1  0  0  0  0  0  0  0  0  0
   14.0694   -5.6648   13.1145 C   0  0  0  0  0  0  0  0  0  0  0  0
   11.7964   -4.9260   13.3342 O   0  0  0  0  0  0  0  0  0  0  0  0
   11.1932   -4.2232   11.2390 O   0  0  0  0  0  0  0  0  0  0  0  0
    8.6009   -3.0588   12.6198 O   0  0  0  0  0  0  0  0  0  0  0  0
    5.8272   -6.6650   13.8428 O   0  0  0  0  0  0  0  0  0  0  0  0
    7.7774   -8.7912   13.6315 Cl  0  0  0  0  0  0  0  0  0  0  0  0
   10.9143   -9.8038   13.9380 O   0  0  0  0  0  0  0  0  0  0  0  0
   13.0051   -3.0766   16.6129 O   0  0  0  0  0  0  0  0  0  0  0  0
    6.4275   -4.1559   13.3188 H   0  0  0  0  0  0  0  0  0  0  0  0
   11.5148   -7.1897   12.7017 H   0  0  0  0  0  0  0  0  0  0  0  0
   10.3320   -8.2939   12.0672 H   0  0  0  0  0  0  0  0  0  0  0  0
   11.3081   -8.8686   16.2056 H   0  0  0  0  0  0  0  0  0  0  0  0
   10.7863   -6.0362   15.1588 H   0  0  0  0  0  0  0  0  0  0  0  0
   11.4036   -7.1175   17.9878 H   0  0  0  0  0  0  0  0  0  0  0  0
   12.1431   -4.8770   18.4182 H   0  0  0  0  0  0  0  0  0  0  0  0
   11.1096   -3.8307   15.8410 H   0  0  0  0  0  0  0  0  0  0  0  0
   14.0361   -4.8507   15.8746 H   0  0  0  0  0  0  0  0  0  0  0  0
   14.5268   -3.1679   14.1699 H   0  0  0  0  0  0  0  0  0  0  0  0
   12.8536   -2.6019   14.1781 H   0  0  0  0  0  0  0  0  0  0  0  0
   13.2577   -3.9185   12.1880 H   0  0  0  0  0  0  0  0  0  0  0  0
   13.8090   -6.3297   12.2847 H   0  0  0  0  0  0  0  0  0  0  0  0
   13.9691   -6.2568   14.0294 H   0  0  0  0  0  0  0  0  0  0  0  0
   15.1140   -5.3579   13.0046 H   0  0  0  0  0  0  0  0  0  0  0  0
    5.2314   -5.8986   13.8462 H   0  0  0  0  0  0  0  0  0  0  0  0
  1  2  1  0  0  0  0
  1 19  1  0  0  0  0
  1 20  2  0  0  0  0
  2  3  2  0  0  0  0
  2  7  1  0  0  0  0
  3  4  1  0  0  0  0
  3 21  1  0  0  0  0
  4  5  2  0  0  0  0
  4 26  1  0  0  0  0
  5  6  1  0  0  0  0
  5 22  1  0  0  0  0
  6  7  2  0  0  0  0
  6 23  1  0  0  0  0
  7  8  1  0  0  0  0
  8  9  1  0  0  0  0
  8 27  1  0  0  0  0
  8 28  1  0  0  0  0
  9 10  1  0  0  0  0
  9 24  2  0  0  0  0
 10 11  2  0  0  0  0
 10 29  1  0  0  0  0
 11 12  1  0  0  0  0
 11 30  1  0  0  0  0
 12 13  2  0  0  0  0
 12 31  1  0  0  0  0
 13 14  1  0  0  0  0
 13 32  1  0  0  0  0
 14 15  1  0  0  0  0
 14 25  1  0  0  0  0
 14 33  1  6  0  0  0
 15 16  1  0  0  0  0
 15 25  1  0  0  0  0
 15 34  1  1  0  0  0
 16 17  1  0  0  0  0
 16 35  1  0  0  0  0
 16 36  1  0  0  0  0
 17 18  1  0  0  0  0
 17 19  1  0  0  0  0
 17 37  1  6  0  0  0
 18 38  1  0  0  0  0
 18 39  1  0  0  0  0
 18 40  1  0  0  0  0
 22 41  1  0  0  0  0
M  END
$$$$
