S3G
 OpenBabel04111918183D

 51 53  0  0  1  0  0  0  0  0999 V2000
  -11.2964   44.1505   -1.8651 C   0  0  0  0  0  0  0  0  0  0  0  0
  -12.2208   44.1654   -2.9041 C   0  0  0  0  0  0  0  0  0  0  0  0
  -10.9314   49.4489    3.1355 C   0  0  0  0  0  0  0  0  0  0  0  0
   -9.3295   48.1326    4.3808 C   0  0  0  0  0  0  0  0  0  0  0  0
  -11.4844   49.8099    4.3496 C   0  0  0  0  0  0  0  0  0  0  0  0
   -9.9656   48.5434    5.5341 C   0  0  0  0  0  0  0  0  0  0  0  0
   -9.8317   48.6010    3.1711 C   0  0  0  0  0  0  0  0  0  0  0  0
  -12.9117   45.1921   -0.3333 C   0  0  0  0  0  0  0  0  0  0  0  0
  -11.6212   44.6574   -0.5796 C   0  0  0  0  0  0  0  0  0  0  0  0
  -13.4766   44.6459   -2.6231 C   0  0  0  0  0  0  0  0  0  0  0  0
  -13.8193   45.1473   -1.3815 C   0  0  0  0  0  0  0  0  0  0  0  0
   -9.1596   48.1649    1.9389 C   0  0  0  0  0  0  0  0  0  0  0  0
  -13.2911   45.7859    0.9886 C   0  0  0  0  0  0  0  0  0  0  0  0
  -15.5787   45.0786   -2.6311 C   0  0  0  0  0  0  0  0  0  0  0  0
   -7.4243   42.6813    0.2488 C   0  0  0  0  0  0  0  0  0  0  0  0
   -6.8198   43.2510    2.6108 C   0  0  0  0  0  0  0  0  0  0  0  0
  -10.5825   44.5325    0.5170 C   0  0  0  0  0  0  0  0  0  0  0  0
   -8.1764   44.9057    1.2816 C   0  0  0  0  0  0  0  0  0  0  0  0
   -9.3896   46.7320   -0.0509 C   0  0  0  0  0  0  0  0  0  0  0  0
   -7.8789   43.4060    1.5170 C   0  0  0  0  0  0  0  0  0  0  0  0
   -9.2339   45.2127    0.1936 C   0  0  2  0  0  0  0  0  0  0  0  0
  -11.0182   49.3913    5.5514 N   0  0  0  0  0  0  0  0  0  0  0  0
   -9.9412   47.4466    1.0745 N   0  0  0  0  0  0  0  0  0  0  0  0
  -14.2738   45.2638    1.6076 O   0  0  0  0  0  0  0  0  0  0  0  0
   -7.9645   48.3969    1.7926 O   0  0  0  0  0  0  0  0  0  0  0  0
  -12.5566   46.7408    1.4092 O   0  0  0  0  0  0  0  0  0  0  0  0
  -14.5108   44.6774   -3.5103 O   0  0  0  0  0  0  0  0  0  0  0  0
  -15.1156   45.5722   -1.3677 O   0  0  0  0  0  0  0  0  0  0  0  0
  -10.3112   43.7288   -2.0501 H   0  0  0  0  0  0  0  0  0  0  0  0
  -11.9693   43.7885   -3.8873 H   0  0  0  0  0  0  0  0  0  0  0  0
  -11.3461   49.8032    2.1993 H   0  0  0  0  0  0  0  0  0  0  0  0
   -8.4883   47.4505    4.4084 H   0  0  0  0  0  0  0  0  0  0  0  0
  -12.3495   50.4649    4.3927 H   0  0  0  0  0  0  0  0  0  0  0  0
   -9.6411   48.1843    6.5053 H   0  0  0  0  0  0  0  0  0  0  0  0
  -16.2268   44.2093   -2.4583 H   0  0  0  0  0  0  0  0  0  0  0  0
  -16.1666   45.8576   -3.1267 H   0  0  0  0  0  0  0  0  0  0  0  0
   -7.1925   41.6325    0.4644 H   0  0  0  0  0  0  0  0  0  0  0  0
   -6.5276   43.1457   -0.1746 H   0  0  0  0  0  0  0  0  0  0  0  0
   -8.2048   42.6821   -0.5179 H   0  0  0  0  0  0  0  0  0  0  0  0
   -7.1481   43.7316    3.5383 H   0  0  0  0  0  0  0  0  0  0  0  0
   -5.8681   43.7007    2.3103 H   0  0  0  0  0  0  0  0  0  0  0  0
   -6.6421   42.1925    2.8300 H   0  0  0  0  0  0  0  0  0  0  0  0
  -10.4416   43.4550    0.6577 H   0  0  0  0  0  0  0  0  0  0  0  0
  -10.9491   44.8874    1.4844 H   0  0  0  0  0  0  0  0  0  0  0  0
   -7.2407   45.4134    1.0128 H   0  0  0  0  0  0  0  0  0  0  0  0
   -8.5027   45.3408    2.2347 H   0  0  0  0  0  0  0  0  0  0  0  0
  -10.0534   46.9211   -0.9005 H   0  0  0  0  0  0  0  0  0  0  0  0
   -8.4134   47.1581   -0.3114 H   0  0  0  0  0  0  0  0  0  0  0  0
   -8.7845   42.9117    1.8864 H   0  0  0  0  0  0  0  0  0  0  0  0
   -8.8443   44.8096   -0.7483 H   0  0  0  0  0  0  0  0  0  0  0  0
  -10.9351   47.2568    1.3131 H   0  0  0  0  0  0  0  0  0  0  0  0
  1  2  2  0  0  0  0
  1  9  1  0  0  0  0
  1 29  1  0  0  0  0
  2 10  1  0  0  0  0
  2 30  1  0  0  0  0
  3  5  2  0  0  0  0
  3  7  1  0  0  0  0
  3 31  1  0  0  0  0
  4  6  1  0  0  0  0
  4  7  2  0  0  0  0
  4 32  1  0  0  0  0
  5 22  1  0  0  0  0
  5 33  1  0  0  0  0
  6 22  2  0  0  0  0
  6 34  1  0  0  0  0
  7 12  1  0  0  0  0
  8  9  2  0  0  0  0
  8 11  1  0  0  0  0
  8 13  1  0  0  0  0
  9 17  1  0  0  0  0
 10 11  2  0  0  0  0
 10 27  1  0  0  0  0
 11 28  1  0  0  0  0
 12 23  1  0  0  0  0
 12 25  2  0  0  0  0
 13 24  2  0  0  0  0
 13 26  1  0  0  0  0
 14 27  1  0  0  0  0
 14 28  1  0  0  0  0
 14 35  1  0  0  0  0
 14 36  1  0  0  0  0
 15 20  1  0  0  0  0
 15 37  1  0  0  0  0
 15 38  1  0  0  0  0
 15 39  1  0  0  0  0
 16 20  1  0  0  0  0
 16 40  1  0  0  0  0
 16 41  1  0  0  0  0
 16 42  1  0  0  0  0
 17 21  1  0  0  0  0
 17 43  1  0  0  0  0
 17 44  1  0  0  0  0
 18 20  1  0  0  0  0
 18 21  1  0  0  0  0
 18 45  1  0  0  0  0
 18 46  1  0  0  0  0
 19 21  1  0  0  0  0
 19 23  1  0  0  0  0
 19 47  1  0  0  0  0
 19 48  1  0  0  0  0
 20 49  1  0  0  0  0
 21 50  1  6  0  0  0
 23 51  1  0  0  0  0
M  END
$$$$
