SB4
 OpenBabel04111920113D

 45 48  0  0  0  0  0  0  0  0999 V2000
   23.0641  -20.8002   27.1881 C   0  0  0  0  0  0  0  0  0  0  0  0
   23.7251  -20.8677   25.8365 C   0  0  0  0  0  0  0  0  0  0  0  0
   22.8507  -20.1742   24.8452 N   0  3  0  0  0  0  0  0  0  0  0  0
   21.4825  -20.7605   24.7068 C   0  0  0  0  0  0  0  0  0  0  0  0
   20.7965  -20.6056   26.0440 C   0  0  0  0  0  0  0  0  0  0  0  0
   21.6259  -21.3054   27.1216 C   0  0  0  0  0  0  0  0  0  0  0  0
   20.8690  -22.7068   32.5315 C   0  0  0  0  0  0  0  0  0  0  0  0
   20.4403  -23.1720   33.7763 C   0  0  0  0  0  0  0  0  0  0  0  0
   19.1609  -22.8629   34.2142 C   0  0  0  0  0  0  0  0  0  0  0  0
   18.2917  -22.1009   33.4463 C   0  0  0  0  0  0  0  0  0  0  0  0
   18.7224  -21.6086   32.2181 C   0  0  0  0  0  0  0  0  0  0  0  0
   20.0095  -21.9046   31.7617 C   0  0  0  0  0  0  0  0  0  0  0  0
   18.7494  -23.3267   35.4069 F   0  0  0  0  0  0  0  0  0  0  0  0
   20.3890  -24.4233   29.6990 C   0  0  0  0  0  0  0  0  0  0  0  0
   21.2923  -23.4900   29.2607 C   0  0  0  0  0  0  0  0  0  0  0  0
   22.4289  -23.7930   28.5872 N   0  0  0  0  0  0  0  0  0  0  0  0
   22.6532  -25.0995   28.3842 C   0  0  0  0  0  0  0  0  0  0  0  0
   21.8487  -26.0776   28.8015 N   0  0  0  0  0  0  0  0  0  0  0  0
   20.7282  -25.7197   29.4562 C   0  0  0  0  0  0  0  0  0  0  0  0
   23.7265  -25.4687   27.6137 N   0  0  0  0  0  0  0  0  0  0  0  0
   21.0630  -21.1346   28.4344 N   0  3  0  0  0  0  0  0  0  0  0  0
   20.5931  -19.9420   28.9403 C   0  0  0  0  0  0  0  0  0  0  0  0
   20.1673  -20.0670   30.1556 N   0  0  0  0  0  0  0  0  0  0  0  0
   20.4149  -21.3776   30.4836 C   0  0  0  0  0  0  0  0  0  0  0  0
   20.9898  -22.0766   29.4309 C   0  0  0  0  0  0  0  0  0  0  0  0
   23.0732  -19.7626   27.5485 H   0  0  0  0  0  0  0  0  0  0  0  0
   23.6455  -21.3762   27.9199 H   0  0  0  0  0  0  0  0  0  0  0  0
   23.8707  -21.8980   25.5005 H   0  0  0  0  0  0  0  0  0  0  0  0
   24.6812  -20.3399   25.8486 H   0  0  0  0  0  0  0  0  0  0  0  0
   22.7681  -19.1800   25.1010 H   0  0  0  0  0  0  0  0  0  0  0  0
   21.5860  -21.8066   24.4010 H   0  0  0  0  0  0  0  0  0  0  0  0
   20.9622  -20.1958   23.9285 H   0  0  0  0  0  0  0  0  0  0  0  0
   19.7770  -21.0107   26.0136 H   0  0  0  0  0  0  0  0  0  0  0  0
   20.7037  -19.5360   26.2639 H   0  0  0  0  0  0  0  0  0  0  0  0
   21.6096  -22.3710   26.8701 H   0  0  0  0  0  0  0  0  0  0  0  0
   21.8591  -22.9714   32.1767 H   0  0  0  0  0  0  0  0  0  0  0  0
   21.1077  -23.7516   34.4093 H   0  0  0  0  0  0  0  0  0  0  0  0
   17.2925  -21.8820   33.8068 H   0  0  0  0  0  0  0  0  0  0  0  0
   18.0538  -20.9968   31.6152 H   0  0  0  0  0  0  0  0  0  0  0  0
   19.4647  -24.1551   30.1926 H   0  0  0  0  0  0  0  0  0  0  0  0
   20.0755  -26.5248   29.7768 H   0  0  0  0  0  0  0  0  0  0  0  0
   24.4411  -24.7899   27.4343 H   0  0  0  0  0  0  0  0  0  0  0  0
   23.9529  -26.4553   27.6521 H   0  0  0  0  0  0  0  0  0  0  0  0
   20.5850  -19.0063   28.3831 H   0  0  0  0  0  0  0  0  0  0  0  0
   23.3212  -20.1813   23.9218 H   0  0  0  0  0  0  0  0  0  0  0  0
  1  2  1  0  0  0  0
  1  6  1  0  0  0  0
  1 26  1  0  0  0  0
  1 27  1  0  0  0  0
  2  3  1  0  0  0  0
  2 28  1  0  0  0  0
  2 29  1  0  0  0  0
  3  4  1  0  0  0  0
  3 30  1  0  0  0  0
  3 45  1  0  0  0  0
  4  5  1  0  0  0  0
  4 31  1  0  0  0  0
  4 32  1  0  0  0  0
  5  6  1  0  0  0  0
  5 33  1  0  0  0  0
  5 34  1  0  0  0  0
  6 21  1  0  0  0  0
  6 35  1  0  0  0  0
  7  8  2  0  0  0  0
  7 12  1  0  0  0  0
  7 36  1  0  0  0  0
  8  9  1  0  0  0  0
  8 37  1  0  0  0  0
  9 10  2  0  0  0  0
  9 13  1  0  0  0  0
 10 11  1  0  0  0  0
 10 38  1  0  0  0  0
 11 12  2  0  0  0  0
 11 39  1  0  0  0  0
 12 24  1  0  0  0  0
 14 15  2  0  0  0  0
 14 19  1  0  0  0  0
 14 40  1  0  0  0  0
 15 16  1  0  0  0  0
 15 25  1  0  0  0  0
 16 17  2  0  0  0  0
 17 18  1  0  0  0  0
 17 20  1  0  0  0  0
 18 19  2  0  0  0  0
 19 41  1  0  0  0  0
 20 42  1  0  0  0  0
 20 43  1  0  0  0  0
 21 22  2  0  0  0  0
 21 25  1  0  0  0  0
 22 23  1  0  0  0  0
 22 44  1  0  0  0  0
 23 24  1  0  0  0  0
 24 25  2  0  0  0  0
M  CHG  2   3   1  21   1
M  END
$$$$
