SDS
 OpenBabel04111919063D

 42 41  0  0  0  0  0  0  0  0999 V2000
   25.9037   42.1301   17.6093 S   0  0  0  0  0  0  0  0  0  0  0  0
   26.0611   42.8041   16.3172 O   0  0  0  0  0  0  0  0  0  0  0  0
   25.1342   40.7637   17.2392 O   0  0  0  0  0  0  0  0  0  0  0  0
   27.1520   41.6704   18.2128 O   0  0  0  0  0  0  0  0  0  0  0  0
   24.9989   42.8003   18.5419 O   0  0  0  0  0  0  0  0  0  0  0  0
   23.8149   40.8404   16.7482 C   0  0  0  0  0  0  0  0  0  0  0  0
   22.2378   28.4073   20.6349 C   0  0  0  0  0  0  0  0  0  0  0  0
   22.4931   29.8793   20.4182 C   0  0  0  0  0  0  0  0  0  0  0  0
   23.1225   30.0969   19.0539 C   0  0  0  0  0  0  0  0  0  0  0  0
   23.8184   31.4351   18.9904 C   0  0  0  0  0  0  0  0  0  0  0  0
   22.8638   32.5932   19.2225 C   0  0  0  0  0  0  0  0  0  0  0  0
   23.3968   33.7589   18.4326 C   0  0  0  0  0  0  0  0  0  0  0  0
   22.7775   35.0650   18.8572 C   0  0  0  0  0  0  0  0  0  0  0  0
   23.4442   36.1244   18.0163 C   0  0  0  0  0  0  0  0  0  0  0  0
   22.8109   37.4687   18.2485 C   0  0  0  0  0  0  0  0  0  0  0  0
   23.6470   38.4824   17.5066 C   0  0  0  0  0  0  0  0  0  0  0  0
   22.9550   39.8287   17.4865 C   0  0  0  0  0  0  0  0  0  0  0  0
   23.8353   40.5877   15.6802 H   0  0  0  0  0  0  0  0  0  0  0  0
   23.3739   41.8320   16.8589 H   0  0  0  0  0  0  0  0  0  0  0  0
   21.7863   28.2516   21.6160 H   0  0  0  0  0  0  0  0  0  0  0  0
   23.1799   27.8510   20.5902 H   0  0  0  0  0  0  0  0  0  0  0  0
   21.5668   28.0185   19.8636 H   0  0  0  0  0  0  0  0  0  0  0  0
   23.1566   30.2530   21.2067 H   0  0  0  0  0  0  0  0  0  0  0  0
   21.5495   30.4336   20.4843 H   0  0  0  0  0  0  0  0  0  0  0  0
   22.3515   30.0419   18.2749 H   0  0  0  0  0  0  0  0  0  0  0  0
   23.8640   29.3203   18.8400 H   0  0  0  0  0  0  0  0  0  0  0  0
   24.2983   31.5214   18.0084 H   0  0  0  0  0  0  0  0  0  0  0  0
   24.6150   31.4809   19.7441 H   0  0  0  0  0  0  0  0  0  0  0  0
   22.8148   32.8358   20.2916 H   0  0  0  0  0  0  0  0  0  0  0  0
   21.8473   32.3589   18.8844 H   0  0  0  0  0  0  0  0  0  0  0  0
   23.1965   33.5861   17.3671 H   0  0  0  0  0  0  0  0  0  0  0  0
   24.4862   33.8239   18.5540 H   0  0  0  0  0  0  0  0  0  0  0  0
   22.9629   35.2540   19.9200 H   0  0  0  0  0  0  0  0  0  0  0  0
   21.6950   35.0547   18.6905 H   0  0  0  0  0  0  0  0  0  0  0  0
   23.3609   35.8649   16.9522 H   0  0  0  0  0  0  0  0  0  0  0  0
   24.5151   36.1625   18.2579 H   0  0  0  0  0  0  0  0  0  0  0  0
   22.7902   37.7077   19.3172 H   0  0  0  0  0  0  0  0  0  0  0  0
   21.7830   37.4679   17.8738 H   0  0  0  0  0  0  0  0  0  0  0  0
   23.8325   38.1472   16.4771 H   0  0  0  0  0  0  0  0  0  0  0  0
   24.6246   38.5545   18.0019 H   0  0  0  0  0  0  0  0  0  0  0  0
   21.9752   39.7385   16.9947 H   0  0  0  0  0  0  0  0  0  0  0  0
   22.7865   40.1608   18.5191 H   0  0  0  0  0  0  0  0  0  0  0  0
  1  2  2  0  0  0  0
  1  3  1  0  0  0  0
  1  4  2  0  0  0  0
  1  5  1  0  0  0  0
  3  6  1  0  0  0  0
  6 17  1  0  0  0  0
  6 18  1  0  0  0  0
  6 19  1  0  0  0  0
  7  8  1  0  0  0  0
  7 20  1  0  0  0  0
  7 21  1  0  0  0  0
  7 22  1  0  0  0  0
  8  9  1  0  0  0  0
  8 23  1  0  0  0  0
  8 24  1  0  0  0  0
  9 10  1  0  0  0  0
  9 25  1  0  0  0  0
  9 26  1  0  0  0  0
 10 11  1  0  0  0  0
 10 27  1  0  0  0  0
 10 28  1  0  0  0  0
 11 12  1  0  0  0  0
 11 29  1  0  0  0  0
 11 30  1  0  0  0  0
 12 13  1  0  0  0  0
 12 31  1  0  0  0  0
 12 32  1  0  0  0  0
 13 14  1  0  0  0  0
 13 33  1  0  0  0  0
 13 34  1  0  0  0  0
 14 15  1  0  0  0  0
 14 35  1  0  0  0  0
 14 36  1  0  0  0  0
 15 16  1  0  0  0  0
 15 37  1  0  0  0  0
 15 38  1  0  0  0  0
 16 17  1  0  0  0  0
 16 39  1  0  0  0  0
 16 40  1  0  0  0  0
 17 41  1  0  0  0  0
 17 42  1  0  0  0  0
M  END
$$$$
