SER
 OpenBabel04111919313D

 14 13  0  0  1  0  0  0  0  0999 V2000
   -3.9606   22.4677   -7.8342 N   0  3  0  0  0  0  0  0  0  0  0  0
   -3.5339   21.0058   -7.9167 C   0  0  2  0  0  0  0  0  0  0  0  0
   -2.0420   20.7889   -7.5724 C   0  0  0  0  0  0  0  0  0  0  0  0
   -1.4250   21.9051   -7.5114 O   0  0  0  0  0  0  0  0  0  0  0  0
   -3.7858   20.4729   -9.3231 C   0  0  0  0  0  0  0  0  0  0  0  0
   -5.1868   20.2602   -9.5344 O   0  0  0  0  0  0  0  0  0  0  0  0
   -1.6849   19.6115   -7.3555 O   0  0  0  0  0  0  0  0  0  0  0  0
   -4.9402   22.6342   -8.0592 H   0  0  0  0  0  0  0  0  0  0  0  0
   -3.7383   22.7832   -6.8823 H   0  0  0  0  0  0  0  0  0  0  0  0
   -4.1635   20.4884   -7.1882 H   0  0  0  0  0  0  0  0  0  0  0  0
   -3.2932   19.5075   -9.4724 H   0  0  0  0  0  0  0  0  0  0  0  0
   -3.4211   21.1573  -10.0975 H   0  0  0  0  0  0  0  0  0  0  0  0
   -5.6673   21.0998   -9.5094 H   0  0  0  0  0  0  0  0  0  0  0  0
   -3.3028   23.0106   -8.4180 H   0  0  0  0  0  0  0  0  0  0  0  0
  1  2  1  0  0  0  0
  1  8  1  0  0  0  0
  1  9  1  0  0  0  0
  1 14  1  0  0  0  0
  2  3  1  0  0  0  0
  2  5  1  0  0  0  0
  2 10  1  1  0  0  0
  3  4  2  0  0  0  0
  3  7  1  0  0  0  0
  5  6  1  0  0  0  0
  5 11  1  0  0  0  0
  5 12  1  0  0  0  0
  6 13  1  0  0  0  0
M  CHG  1   1   1
M  END
$$$$
