SLB
 OpenBabel04111920253D

 39 39  0  0  1  0  0  0  0  0999 V2000
   21.5408   30.2616   12.9436 C   0  0  0  0  0  0  0  0  0  0  0  0
   19.9529   30.1258   12.9168 C   0  0  1  0  0  0  0  0  0  0  0  0
   19.5534   28.8819   13.6911 C   0  0  0  0  0  0  0  0  0  0  0  0
   18.0430   28.6906   13.5727 C   0  0  1  0  0  0  0  0  0  0  0  0
   17.6431   28.6101   12.0740 C   0  0  2  0  0  0  0  0  0  0  0  0
   18.1276   29.9125   11.3861 C   0  0  2  0  0  0  0  0  0  0  0  0
   17.8759   29.9573    9.8624 C   0  0  1  0  0  0  0  0  0  0  0  0
   18.3716   31.2977    9.2533 C   0  0  1  0  0  0  0  0  0  0  0  0
   18.0891   31.4003    7.7507 C   0  0  0  0  0  0  0  0  0  0  0  0
   15.6554   27.2129   11.5638 C   0  0  0  0  0  0  0  0  0  0  0  0
   14.1549   27.2587   11.3926 C   0  0  0  0  0  0  0  0  0  0  0  0
   16.1935   28.4234   11.9309 N   0  0  0  0  0  0  0  0  0  0  0  0
   21.9471   31.2406   13.6491 O   0  0  0  0  0  0  0  0  0  0  0  0
   22.1976   29.3966   12.2961 O   0  0  0  0  0  0  0  0  0  0  0  0
   19.3509   31.2534   13.5931 O   0  0  0  0  0  0  0  0  0  0  0  0
   17.6553   27.5340   14.3116 O   0  0  0  0  0  0  0  0  0  0  0  0
   19.5326   30.0700   11.5525 O   0  0  0  0  0  0  0  0  0  0  0  0
   18.5529   28.8721    9.2157 O   0  0  0  0  0  0  0  0  0  0  0  0
   17.7608   32.4385    9.8782 O   0  0  0  0  0  0  0  0  0  0  0  0
   16.6933   31.2431    7.4751 O   0  0  0  0  0  0  0  0  0  0  0  0
   16.2677   26.1631   11.4158 O   0  0  0  0  0  0  0  0  0  0  0  0
   19.8291   28.9834   14.7492 H   0  0  0  0  0  0  0  0  0  0  0  0
   20.0679   27.9903   13.3156 H   0  0  0  0  0  0  0  0  0  0  0  0
   17.5244   29.5378   14.0432 H   0  0  0  0  0  0  0  0  0  0  0  0
   18.1486   27.7442   11.6381 H   0  0  0  0  0  0  0  0  0  0  0  0
   17.6064   30.7657   11.8381 H   0  0  0  0  0  0  0  0  0  0  0  0
   16.8014   29.8438    9.6748 H   0  0  0  0  0  0  0  0  0  0  0  0
   19.4565   31.3898    9.3881 H   0  0  0  0  0  0  0  0  0  0  0  0
   18.6451   30.6480    7.1853 H   0  0  0  0  0  0  0  0  0  0  0  0
   18.3767   32.3923    7.3838 H   0  0  0  0  0  0  0  0  0  0  0  0
   13.7962   26.2912   11.0568 H   0  0  0  0  0  0  0  0  0  0  0  0
   13.9006   28.0104   10.6404 H   0  0  0  0  0  0  0  0  0  0  0  0
   13.6883   27.5065   12.3493 H   0  0  0  0  0  0  0  0  0  0  0  0
   15.5841   29.1950   12.1562 H   0  0  0  0  0  0  0  0  0  0  0  0
   20.1231   31.6205   14.0854 H   0  0  0  0  0  0  0  0  0  0  0  0
   16.7225   27.3766   14.0959 H   0  0  0  0  0  0  0  0  0  0  0  0
   19.4731   28.8962    9.5538 H   0  0  0  0  0  0  0  0  0  0  0  0
   16.8157   32.2572    9.9851 H   0  0  0  0  0  0  0  0  0  0  0  0
   16.2429   31.9861    7.9073 H   0  0  0  0  0  0  0  0  0  0  0  0
  1 13  2  0  0  0  0
  1 14  1  0  0  0  0
  2  1  1  1  0  0  0
  2  3  1  0  0  0  0
  2 15  1  0  0  0  0
  2 17  1  0  0  0  0
  3  4  1  0  0  0  0
  3 22  1  0  0  0  0
  3 23  1  0  0  0  0
  4  5  1  0  0  0  0
  4 16  1  0  0  0  0
  4 24  1  1  0  0  0
  5  6  1  0  0  0  0
  5 12  1  0  0  0  0
  5 25  1  6  0  0  0
  6  7  1  0  0  0  0
  6 17  1  0  0  0  0
  6 26  1  1  0  0  0
  7  8  1  0  0  0  0
  7 18  1  0  0  0  0
  7 27  1  6  0  0  0
  8  9  1  0  0  0  0
  8 19  1  0  0  0  0
  8 28  1  1  0  0  0
  9 20  1  0  0  0  0
  9 29  1  0  0  0  0
  9 30  1  0  0  0  0
 10 11  1  0  0  0  0
 10 12  1  0  0  0  0
 10 21  2  0  0  0  0
 11 31  1  0  0  0  0
 11 32  1  0  0  0  0
 11 33  1  0  0  0  0
 12 34  1  0  0  0  0
 15 35  1  0  0  0  0
 16 36  1  0  0  0  0
 18 37  1  0  0  0  0
 19 38  1  0  0  0  0
 20 39  1  0  0  0  0
M  END
$$$$
