SMD
 OpenBabel04111917493D

 48 49  0  0  1  0  0  0  0  0999 V2000
  -27.2917  -14.8591  -14.3099 O   0  0  0  0  0  0  0  0  0  0  0  0
  -27.6272  -13.5144  -13.9312 C   0  0  1  0  0  0  0  0  0  0  0  0
  -27.5712  -12.6181  -15.1689 C   0  0  1  0  0  0  0  0  0  0  0  0
  -28.3215  -13.1933  -16.2319 O   0  0  0  0  0  0  0  0  0  0  0  0
  -28.0956  -11.2295  -14.8098 C   0  0  2  0  0  0  0  0  0  0  0  0
  -27.3006  -10.6319  -13.7818 O   0  0  0  0  0  0  0  0  0  0  0  0
  -29.5605  -11.3028  -14.3361 C   0  0  1  0  0  0  0  0  0  0  0  0
  -30.4810  -10.9361  -15.5146 C   0  0  0  0  0  0  0  0  0  0  0  0
  -31.8569  -11.0546  -15.1766 O   0  0  0  0  0  0  0  0  0  0  0  0
  -29.9793  -12.6007  -13.8710 O   0  0  0  0  0  0  0  0  0  0  0  0
  -29.0006  -13.4064  -13.2121 C   0  0  2  0  0  0  0  0  0  0  0  0
  -28.6823  -12.8833  -11.4842 S   0  0  0  0  0  0  0  0  0  0  0  0
  -30.2749  -13.3165  -10.6647 C   0  0  2  0  0  0  0  0  0  0  0  0
  -30.3552  -12.5033   -9.3533 C   0  0  1  0  0  0  0  0  0  0  0  0
  -31.6800  -12.5990   -8.8228 O   0  0  0  0  0  0  0  0  0  0  0  0
  -31.8188  -11.8654   -7.6121 C   0  0  0  0  0  0  0  0  0  0  0  0
  -29.3799  -12.9478   -8.4005 O   0  0  0  0  0  0  0  0  0  0  0  0
  -30.4087  -14.8152  -10.3239 C   0  0  1  0  0  0  0  0  0  0  0  0
  -30.2200  -15.6365  -11.4876 O   0  0  0  0  0  0  0  0  0  0  0  0
  -29.4354  -15.2597   -9.2220 C   0  0  2  0  0  0  0  0  0  0  0  0
  -29.7470  -16.5974   -8.8127 O   0  0  0  0  0  0  0  0  0  0  0  0
  -29.5586  -14.3234   -8.0195 C   0  0  1  0  0  0  0  0  0  0  0  0
  -28.5132  -14.6284   -6.9473 C   0  0  0  0  0  0  0  0  0  0  0  0
  -28.7010  -13.7542   -5.8301 O   0  0  0  0  0  0  0  0  0  0  0  0
  -27.4796  -15.4300  -13.5547 H   0  0  0  0  0  0  0  0  0  0  0  0
  -26.8164  -13.2182  -13.2526 H   0  0  0  0  0  0  0  0  0  0  0  0
  -26.5211  -12.5650  -15.4895 H   0  0  0  0  0  0  0  0  0  0  0  0
  -28.1536  -12.6772  -17.0401 H   0  0  0  0  0  0  0  0  0  0  0  0
  -28.0175  -10.5689  -15.6807 H   0  0  0  0  0  0  0  0  0  0  0  0
  -26.3891  -10.5363  -14.1142 H   0  0  0  0  0  0  0  0  0  0  0  0
  -29.7444  -10.5987  -13.5128 H   0  0  0  0  0  0  0  0  0  0  0  0
  -30.3029  -11.5874  -16.3746 H   0  0  0  0  0  0  0  0  0  0  0  0
  -30.2990   -9.8952  -15.8340 H   0  0  0  0  0  0  0  0  0  0  0  0
  -31.9706  -11.9852  -14.9006 H   0  0  0  0  0  0  0  0  0  0  0  0
  -29.4310  -14.4072  -13.1945 H   0  0  0  0  0  0  0  0  0  0  0  0
  -31.0883  -13.0224  -11.3343 H   0  0  0  0  0  0  0  0  0  0  0  0
  -30.1513  -11.4431   -9.5627 H   0  0  0  0  0  0  0  0  0  0  0  0
  -32.8495  -11.9739   -7.2684 H   0  0  0  0  0  0  0  0  0  0  0  0
  -31.5986  -10.8075   -7.7716 H   0  0  0  0  0  0  0  0  0  0  0  0
  -31.1638  -12.2685   -6.8327 H   0  0  0  0  0  0  0  0  0  0  0  0
  -31.4347  -15.0064   -9.9838 H   0  0  0  0  0  0  0  0  0  0  0  0
  -30.4557  -16.5495  -11.2541 H   0  0  0  0  0  0  0  0  0  0  0  0
  -28.4069  -15.2661   -9.6084 H   0  0  0  0  0  0  0  0  0  0  0  0
  -29.5692  -17.1952   -9.5595 H   0  0  0  0  0  0  0  0  0  0  0  0
  -30.5454  -14.4413   -7.5564 H   0  0  0  0  0  0  0  0  0  0  0  0
  -27.5020  -14.4534   -7.3275 H   0  0  0  0  0  0  0  0  0  0  0  0
  -28.5892  -15.6586   -6.5900 H   0  0  0  0  0  0  0  0  0  0  0  0
  -28.6981  -12.8532   -6.2060 H   0  0  0  0  0  0  0  0  0  0  0  0
  1  2  1  0  0  0  0
  1 25  1  0  0  0  0
  2  3  1  0  0  0  0
  2 11  1  0  0  0  0
  2 26  1  1  0  0  0
  3  4  1  0  0  0  0
  3  5  1  0  0  0  0
  3 27  1  6  0  0  0
  4 28  1  0  0  0  0
  5  6  1  0  0  0  0
  5  7  1  0  0  0  0
  5 29  1  6  0  0  0
  6 30  1  0  0  0  0
  7  8  1  0  0  0  0
  7 10  1  0  0  0  0
  7 31  1  1  0  0  0
  8  9  1  0  0  0  0
  8 32  1  0  0  0  0
  8 33  1  0  0  0  0
  9 34  1  0  0  0  0
 10 11  1  0  0  0  0
 11 12  1  0  0  0  0
 11 35  1  1  0  0  0
 12 13  1  0  0  0  0
 13 14  1  0  0  0  0
 13 18  1  0  0  0  0
 13 36  1  6  0  0  0
 14 15  1  0  0  0  0
 14 17  1  0  0  0  0
 14 37  1  6  0  0  0
 15 16  1  0  0  0  0
 16 38  1  0  0  0  0
 16 39  1  0  0  0  0
 16 40  1  0  0  0  0
 17 22  1  0  0  0  0
 18 19  1  0  0  0  0
 18 20  1  0  0  0  0
 18 41  1  1  0  0  0
 19 42  1  0  0  0  0
 20 21  1  0  0  0  0
 20 22  1  0  0  0  0
 20 43  1  6  0  0  0
 21 44  1  0  0  0  0
 22 23  1  0  0  0  0
 22 45  1  1  0  0  0
 23 24  1  0  0  0  0
 23 46  1  0  0  0  0
 23 47  1  0  0  0  0
 24 48  1  0  0  0  0
M  END
$$$$
