SQL
 OpenBabel04111920553D

 92 91  0  0  1  0  0  0  0  0999 V2000
   13.8436   -0.2135    8.9459 C   0  0  0  0  0  0  0  0  0  0  0  0
   14.2718    0.4734    7.6520 C   0  0  0  0  0  0  0  0  0  0  0  0
   13.1321    0.8992    6.7296 C   0  0  0  0  0  0  0  0  0  0  0  0
   15.3729    1.5506    7.7431 C   0  0  0  0  0  0  0  0  0  0  0  0
   16.3945    1.3812    8.8444 C   0  0  0  0  0  0  0  0  0  0  0  0
   17.7592    1.8344    8.3421 C   0  0  0  0  0  0  0  0  0  0  0  0
   18.7371    1.9353    9.5281 C   0  0  1  0  0  0  0  0  0  0  0  0
   19.3536    0.6117    9.9620 C   0  0  0  0  0  0  0  0  0  0  0  0
   19.6507    3.1351    9.3374 C   0  0  0  0  0  0  0  0  0  0  0  0
   20.8964    3.1967   10.2357 C   0  0  0  0  0  0  0  0  0  0  0  0
   21.4039    4.6534   10.3364 C   0  0  0  0  0  0  0  0  0  0  0  0
   21.7088    5.1239    8.8940 C   0  0  2  0  0  0  0  0  0  0  0  0
   22.9340    4.4901    8.2606 C   0  0  0  0  0  0  0  0  0  0  0  0
   21.5083    6.6019    8.5088 C   0  0  0  0  0  0  0  0  0  0  0  0
   20.4943    7.4402    9.2873 C   0  0  0  0  0  0  0  0  0  0  0  0
   20.8249    8.9214    9.0628 C   0  0  0  0  0  0  0  0  0  0  0  0
   20.5733    9.3494    7.6042 C   0  0  0  0  0  0  0  0  0  0  0  0
   19.7687   10.6555    7.4303 C   0  0  2  0  0  0  0  0  0  0  0  0
   18.8241   11.0737    8.5465 C   0  0  0  0  0  0  0  0  0  0  0  0
   19.2785   10.8778    5.9799 C   0  0  0  0  0  0  0  0  0  0  0  0
   17.7683   11.0397    5.7345 C   0  0  0  0  0  0  0  0  0  0  0  0
   17.5304   11.6482    4.3486 C   0  0  0  0  0  0  0  0  0  0  0  0
   16.2180   12.4312    4.1352 C   0  0  1  0  0  0  0  0  0  0  0  0
   15.5264   13.1305    5.3285 C   0  0  0  0  0  0  0  0  0  0  0  0
   14.1572   13.6893    4.9252 C   0  0  0  0  0  0  0  0  0  0  0  0
   13.0367   12.6258    4.9897 C   0  0  0  0  0  0  0  0  0  0  0  0
   12.2834   11.8748    3.8455 C   0  0  0  0  0  0  0  0  0  0  0  0
   11.2437   10.9526    4.5474 C   0  0  0  0  0  0  0  0  0  0  0  0
   12.9280   11.2081    2.6488 C   0  0  0  0  0  0  0  0  0  0  0  0
   16.2476   13.2686    2.8461 C   0  0  0  0  0  0  0  0  0  0  0  0
   12.8716   -0.7044    8.8139 H   0  0  0  0  0  0  0  0  0  0  0  0
   13.7998    0.4270    9.8335 H   0  0  0  0  0  0  0  0  0  0  0  0
   14.5645   -1.0148    9.1533 H   0  0  0  0  0  0  0  0  0  0  0  0
   14.7635   -0.3228    7.1006 H   0  0  0  0  0  0  0  0  0  0  0  0
   13.4638    1.6511    5.9966 H   0  0  0  0  0  0  0  0  0  0  0  0
   12.2382    1.2886    7.2322 H   0  0  0  0  0  0  0  0  0  0  0  0
   12.8313    0.0148    6.1566 H   0  0  0  0  0  0  0  0  0  0  0  0
   14.9877    2.5745    7.7804 H   0  0  0  0  0  0  0  0  0  0  0  0
   15.8966    1.4755    6.7861 H   0  0  0  0  0  0  0  0  0  0  0  0
   16.4909    0.3554    9.1997 H   0  0  0  0  0  0  0  0  0  0  0  0
   16.1128    1.9925    9.7169 H   0  0  0  0  0  0  0  0  0  0  0  0
   17.6450    2.8136    7.8615 H   0  0  0  0  0  0  0  0  0  0  0  0
   18.1408    1.1598    7.5566 H   0  0  0  0  0  0  0  0  0  0  0  0
   18.1446    2.2295   10.3988 H   0  0  0  0  0  0  0  0  0  0  0  0
   20.2282    0.7450   10.6058 H   0  0  0  0  0  0  0  0  0  0  0  0
   19.6277   -0.0614    9.1474 H   0  0  0  0  0  0  0  0  0  0  0  0
   18.6041    0.1063   10.5780 H   0  0  0  0  0  0  0  0  0  0  0  0
   19.0271    4.0103    9.5843 H   0  0  0  0  0  0  0  0  0  0  0  0
   19.8934    3.2321    8.2662 H   0  0  0  0  0  0  0  0  0  0  0  0
   21.6875    2.5413    9.8597 H   0  0  0  0  0  0  0  0  0  0  0  0
   20.6448    2.8479   11.2370 H   0  0  0  0  0  0  0  0  0  0  0  0
   22.2460    4.7170   11.0344 H   0  0  0  0  0  0  0  0  0  0  0  0
   20.5976    5.2304   10.7981 H   0  0  0  0  0  0  0  0  0  0  0  0
   20.9237    4.7503    8.3140 H   0  0  0  0  0  0  0  0  0  0  0  0
   23.2154    5.0227    7.3423 H   0  0  0  0  0  0  0  0  0  0  0  0
   22.6488    3.4797    7.9492 H   0  0  0  0  0  0  0  0  0  0  0  0
   23.8155    4.4089    8.9016 H   0  0  0  0  0  0  0  0  0  0  0  0
   21.0903    6.5316    7.4900 H   0  0  0  0  0  0  0  0  0  0  0  0
   22.4598    7.1213    8.3855 H   0  0  0  0  0  0  0  0  0  0  0  0
   20.5163    7.2443   10.3640 H   0  0  0  0  0  0  0  0  0  0  0  0
   19.4679    7.2255    8.9501 H   0  0  0  0  0  0  0  0  0  0  0  0
   21.8939    9.0491    9.2902 H   0  0  0  0  0  0  0  0  0  0  0  0
   20.2970    9.5149    9.8002 H   0  0  0  0  0  0  0  0  0  0  0  0
   20.1461    8.5272    7.0127 H   0  0  0  0  0  0  0  0  0  0  0  0
   21.5596    9.5300    7.1571 H   0  0  0  0  0  0  0  0  0  0  0  0
   20.5643   11.4011    7.5373 H   0  0  0  0  0  0  0  0  0  0  0  0
   18.1586   11.8870    8.2690 H   0  0  0  0  0  0  0  0  0  0  0  0
   19.4358   11.5062    9.3518 H   0  0  0  0  0  0  0  0  0  0  0  0
   18.2278   10.2541    8.9642 H   0  0  0  0  0  0  0  0  0  0  0  0
   19.6713   10.1182    5.2908 H   0  0  0  0  0  0  0  0  0  0  0  0
   19.7423   11.8203    5.6653 H   0  0  0  0  0  0  0  0  0  0  0  0
   17.3281   11.6836    6.4961 H   0  0  0  0  0  0  0  0  0  0  0  0
   17.2646   10.0688    5.8012 H   0  0  0  0  0  0  0  0  0  0  0  0
   17.5048   10.8234    3.6310 H   0  0  0  0  0  0  0  0  0  0  0  0
   18.3897   12.2751    4.0402 H   0  0  0  0  0  0  0  0  0  0  0  0
   15.5453   11.6335    3.9137 H   0  0  0  0  0  0  0  0  0  0  0  0
   16.1587   13.9205    5.7889 H   0  0  0  0  0  0  0  0  0  0  0  0
   15.3800   12.4059    6.1373 H   0  0  0  0  0  0  0  0  0  0  0  0
   14.1834   14.2803    4.0021 H   0  0  0  0  0  0  0  0  0  0  0  0
   13.9135   14.4254    5.7062 H   0  0  0  0  0  0  0  0  0  0  0  0
   12.2188   13.2270    5.4146 H   0  0  0  0  0  0  0  0  0  0  0  0
   13.3201   11.9085    5.7651 H   0  0  0  0  0  0  0  0  0  0  0  0
   11.6767   12.6592    3.3951 H   0  0  0  0  0  0  0  0  0  0  0  0
   10.8166   10.2083    3.8717 H   0  0  0  0  0  0  0  0  0  0  0  0
   10.4173   11.5802    4.9067 H   0  0  0  0  0  0  0  0  0  0  0  0
   11.6324   10.4204    5.4281 H   0  0  0  0  0  0  0  0  0  0  0  0
   13.7834   11.7565    2.2678 H   0  0  0  0  0  0  0  0  0  0  0  0
   12.1843   11.2294    1.8388 H   0  0  0  0  0  0  0  0  0  0  0  0
   13.1869   10.1527    2.7641 H   0  0  0  0  0  0  0  0  0  0  0  0
   16.9360   12.8296    2.1312 H   0  0  0  0  0  0  0  0  0  0  0  0
   16.4874   14.3253    2.9868 H   0  0  0  0  0  0  0  0  0  0  0  0
   15.2585   13.2358    2.3640 H   0  0  0  0  0  0  0  0  0  0  0  0
  1  2  1  0  0  0  0
  1 31  1  0  0  0  0
  1 32  1  0  0  0  0
  1 33  1  0  0  0  0
  2  3  1  0  0  0  0
  2  4  1  0  0  0  0
  2 34  1  0  0  0  0
  3 35  1  0  0  0  0
  3 36  1  0  0  0  0
  3 37  1  0  0  0  0
  4  5  1  0  0  0  0
  4 38  1  0  0  0  0
  4 39  1  0  0  0  0
  5  6  1  0  0  0  0
  5 40  1  0  0  0  0
  5 41  1  0  0  0  0
  6  7  1  0  0  0  0
  6 42  1  0  0  0  0
  6 43  1  0  0  0  0
  7  8  1  0  0  0  0
  7  9  1  0  0  0  0
  7 44  1  1  0  0  0
  8 45  1  0  0  0  0
  8 46  1  0  0  0  0
  8 47  1  0  0  0  0
  9 10  1  0  0  0  0
  9 48  1  0  0  0  0
  9 49  1  0  0  0  0
 10 11  1  0  0  0  0
 10 50  1  0  0  0  0
 10 51  1  0  0  0  0
 11 12  1  0  0  0  0
 11 52  1  0  0  0  0
 11 53  1  0  0  0  0
 12 13  1  0  0  0  0
 12 14  1  0  0  0  0
 12 54  1  6  0  0  0
 13 55  1  0  0  0  0
 13 56  1  0  0  0  0
 13 57  1  0  0  0  0
 14 15  1  0  0  0  0
 14 58  1  0  0  0  0
 14 59  1  0  0  0  0
 15 16  1  0  0  0  0
 15 60  1  0  0  0  0
 15 61  1  0  0  0  0
 16 17  1  0  0  0  0
 16 62  1  0  0  0  0
 16 63  1  0  0  0  0
 17 18  1  0  0  0  0
 17 64  1  0  0  0  0
 17 65  1  0  0  0  0
 18 19  1  0  0  0  0
 18 20  1  0  0  0  0
 18 66  1  1  0  0  0
 19 67  1  0  0  0  0
 19 68  1  0  0  0  0
 19 69  1  0  0  0  0
 20 21  1  0  0  0  0
 20 70  1  0  0  0  0
 20 71  1  0  0  0  0
 21 22  1  0  0  0  0
 21 72  1  0  0  0  0
 21 73  1  0  0  0  0
 22 23  1  0  0  0  0
 22 74  1  0  0  0  0
 22 75  1  0  0  0  0
 23 24  1  0  0  0  0
 23 30  1  0  0  0  0
 23 76  1  6  0  0  0
 24 25  1  0  0  0  0
 24 77  1  0  0  0  0
 24 78  1  0  0  0  0
 25 26  1  0  0  0  0
 25 79  1  0  0  0  0
 25 80  1  0  0  0  0
 26 27  1  0  0  0  0
 26 81  1  0  0  0  0
 26 82  1  0  0  0  0
 27 28  1  0  0  0  0
 27 29  1  0  0  0  0
 27 83  1  0  0  0  0
 28 84  1  0  0  0  0
 28 85  1  0  0  0  0
 28 86  1  0  0  0  0
 29 87  1  0  0  0  0
 29 88  1  0  0  0  0
 29 89  1  0  0  0  0
 30 90  1  0  0  0  0
 30 91  1  0  0  0  0
 30 92  1  0  0  0  0
M  END
$$$$
