SW1
 OpenBabel04111917383D

 21 22  0  0  0  0  0  0  0  0999 V2000
    1.8486  -15.9182   18.1922 C   0  0  0  0  0  0  0  0  0  0  0  0
    3.1111  -15.5754   18.8802 N   0  3  0  0  0  0  0  0  0  0  0  0
    1.1208  -14.4509   14.5440 S   0  0  0  0  0  0  0  0  0  0  0  0
    1.7106  -15.1758   16.9038 C   0  0  0  0  0  0  0  0  0  0  0  0
    2.3538  -13.9456   16.7490 N   0  0  0  0  0  0  0  0  0  0  0  0
    3.8693  -11.3326   15.8523 S   0  0  0  0  0  0  0  0  0  0  0  0
    1.0112  -15.6058   15.7937 C   0  0  0  0  0  0  0  0  0  0  0  0
    2.0915  -13.4369   15.5503 C   0  0  0  0  0  0  0  0  0  0  0  0
    2.5648  -12.1480   15.0832 C   0  0  0  0  0  0  0  0  0  0  0  0
    2.0938  -11.4034   14.0133 C   0  0  0  0  0  0  0  0  0  0  0  0
    2.7911  -10.1686   13.8355 C   0  0  0  0  0  0  0  0  0  0  0  0
    3.7866  -10.0089   14.7707 C   0  0  0  0  0  0  0  0  0  0  0  0
    1.0327  -15.6742   18.8772 H   0  0  0  0  0  0  0  0  0  0  0  0
    1.8684  -17.0001   18.0240 H   0  0  0  0  0  0  0  0  0  0  0  0
    3.2460  -16.0851   19.7579 H   0  0  0  0  0  0  0  0  0  0  0  0
    3.9075  -15.7430   18.2531 H   0  0  0  0  0  0  0  0  0  0  0  0
    0.4529  -16.5219   15.6571 H   0  0  0  0  0  0  0  0  0  0  0  0
    1.2741  -11.7053   13.3713 H   0  0  0  0  0  0  0  0  0  0  0  0
    2.5708   -9.4424   13.0612 H   0  0  0  0  0  0  0  0  0  0  0  0
    4.4695   -9.1720   14.8661 H   0  0  0  0  0  0  0  0  0  0  0  0
    3.1157  -14.5580   19.0552 H   0  0  0  0  0  0  0  0  0  0  0  0
  1  2  1  0  0  0  0
  1  4  1  0  0  0  0
  1 13  1  0  0  0  0
  1 14  1  0  0  0  0
  2 15  1  0  0  0  0
  2 16  1  0  0  0  0
  2 21  1  0  0  0  0
  3  7  1  0  0  0  0
  3  8  1  0  0  0  0
  4  5  1  0  0  0  0
  4  7  2  0  0  0  0
  5  8  2  0  0  0  0
  6  9  1  0  0  0  0
  6 12  1  0  0  0  0
  7 17  1  0  0  0  0
  8  9  1  0  0  0  0
  9 10  2  0  0  0  0
 10 11  1  0  0  0  0
 10 18  1  0  0  0  0
 11 12  2  0  0  0  0
 11 19  1  0  0  0  0
 12 20  1  0  0  0  0
M  CHG  1   2   1
M  END
$$$$
