T5A
 OpenBabel04111921523D

 80 84  0  0  1  0  0  0  0  0999 V2000
   24.8958  100.3171   17.5118 N   0  3  0  0  0  0  0  0  0  0  0  0
   24.8111  100.5868   16.1587 C   0  0  0  0  0  0  0  0  0  0  0  0
   25.8718   99.4850   18.0286 C   0  0  0  0  0  0  0  0  0  0  0  0
   25.9846   99.1279   19.2012 O   0  0  0  0  0  0  0  0  0  0  0  0
   26.7868   99.0208   17.1133 N   0  3  0  0  0  0  0  0  0  0  0  0
   26.7564   99.2384   15.7679 C   0  0  0  0  0  0  0  0  0  0  0  0
   27.6007   98.7142   15.0196 O   0  0  0  0  0  0  0  0  0  0  0  0
   25.6733  100.0910   15.2626 C   0  0  0  0  0  0  0  0  0  0  0  0
   25.5699  100.3569   13.7959 C   0  0  0  0  0  0  0  0  0  0  0  0
   20.5181  101.8248   17.5909 C   0  0  0  0  0  0  0  0  0  0  0  0
   21.6551  101.4613   18.5553 C   0  0  1  0  0  0  0  0  0  0  0  0
   22.5814  100.4769   18.0099 O   0  0  0  0  0  0  0  0  0  0  0  0
   23.8982  100.9025   18.4051 C   0  0  2  0  0  0  0  0  0  0  0  0
   23.8619  102.4221   18.4011 C   0  0  0  0  0  0  0  0  0  0  0  0
   22.4952  102.6773   18.9895 C   0  0  2  0  0  0  0  0  0  0  0  0
   22.6141  102.6534   20.4262 O   0  0  0  0  0  0  0  0  0  0  0  0
   20.1562  103.4888   15.5403 P   0  0  2  0  0  0  0  0  0  0  0  0
   19.3730  102.4392   14.7664 O   0  0  0  0  0  0  0  0  0  0  0  0
   21.2162  104.3216   14.8789 O   0  0  0  0  0  0  0  0  0  0  0  0
   21.0715  102.5968   16.5635 O   0  0  0  0  0  0  0  0  0  0  0  0
   19.2449  104.2928   16.5885 O   0  0  0  0  0  0  0  0  0  0  0  0
   18.3769  105.6354   16.3308 P   0  0  2  0  0  0  0  0  0  0  0  0
   17.2599  105.5856   17.3915 O   0  0  0  0  0  0  0  0  0  0  0  0
   17.8776  105.7078   14.9067 O   0  0  0  0  0  0  0  0  0  0  0  0
   19.3653  106.8178   16.7793 O   0  0  0  0  0  0  0  0  0  0  0  0
   20.5417  107.6911   16.1009 P   0  0  1  0  0  0  0  0  0  0  0  0
   21.8629  107.2410   16.7158 O   0  0  0  0  0  0  0  0  0  0  0  0
   20.3493  107.7842   14.6006 O   0  0  0  0  0  0  0  0  0  0  0  0
   20.1861  109.1198   16.7626 O   0  0  0  0  0  0  0  0  0  0  0  0
   20.5020  110.6563   16.3838 P   0  0  2  0  0  0  0  0  0  0  0  0
   21.6815  110.8213   15.4459 O   0  0  0  0  0  0  0  0  0  0  0  0
   20.5717  111.4202   17.7059 O   0  0  0  0  0  0  0  0  0  0  0  0
   19.1211  111.0622   15.6422 O   0  0  0  0  0  0  0  0  0  0  0  0
   18.3578  112.4269   15.3636 P   0  0  1  0  0  0  0  0  0  0  0  0
   19.1894  113.5274   14.7293 O   0  0  0  0  0  0  0  0  0  0  0  0
   16.9886  112.1656   14.7439 O   0  0  0  0  0  0  0  0  0  0  0  0
   17.9890  112.9661   16.8645 O   0  0  0  0  0  0  0  0  0  0  0  0
   17.4609  112.0219   17.7674 C   0  0  0  0  0  0  0  0  0  0  0  0
   16.5080  112.7102   18.7411 C   0  0  1  0  0  0  0  0  0  0  0  0
   17.2360  113.6548   19.5878 O   0  0  0  0  0  0  0  0  0  0  0  0
   16.7984  114.9838   19.2690 C   0  0  2  0  0  0  0  0  0  0  0  0
   15.9210  114.9361   18.0165 C   0  0  2  0  0  0  0  0  0  0  0  0
   14.8986  115.9492   18.0787 O   0  0  0  0  0  0  0  0  0  0  0  0
   15.3659  113.5149   18.0980 C   0  0  2  0  0  0  0  0  0  0  0  0
   14.2126  113.5523   18.9912 O   0  0  0  0  0  0  0  0  0  0  0  0
   17.9041  115.9251   19.1873 N   0  3  0  0  0  0  0  0  0  0  0  0
   17.9881  117.1070   19.8909 C   0  0  0  0  0  0  0  0  0  0  0  0
   17.1517  117.5808   20.8478 N   0  0  0  0  0  0  0  0  0  0  0  0
   17.5609  118.7934   21.2666 C   0  0  0  0  0  0  0  0  0  0  0  0
   18.6234  119.5354   20.8757 N   0  0  0  0  0  0  0  0  0  0  0  0
   19.4215  119.0159   19.9119 C   0  0  0  0  0  0  0  0  0  0  0  0
   20.4964  119.7839   19.5050 N   0  0  0  0  0  0  0  0  0  0  0  0
   19.1003  117.7526   19.3799 C   0  0  0  0  0  0  0  0  0  0  0  0
   19.6816  117.0111   18.3792 N   0  0  0  0  0  0  0  0  0  0  0  0
   18.9282  115.9282   18.2780 C   0  0  0  0  0  0  0  0  0  0  0  0
   23.9802  101.2219   15.8432 H   0  0  0  0  0  0  0  0  0  0  0  0
   27.5110   98.4229   17.4660 H   0  0  0  0  0  0  0  0  0  0  0  0
   24.7201  101.0063   13.5554 H   0  0  0  0  0  0  0  0  0  0  0  0
   25.4343   99.4204   13.2456 H   0  0  0  0  0  0  0  0  0  0  0  0
   26.4773  100.8481   13.4323 H   0  0  0  0  0  0  0  0  0  0  0  0
   19.7675  102.4025   18.1394 H   0  0  0  0  0  0  0  0  0  0  0  0
   20.0538  100.9219   17.1819 H   0  0  0  0  0  0  0  0  0  0  0  0
   21.2149  100.9703   19.4297 H   0  0  0  0  0  0  0  0  0  0  0  0
   24.0590  100.5357   19.4273 H   0  0  0  0  0  0  0  0  0  0  0  0
   23.8949  102.8240   17.3828 H   0  0  0  0  0  0  0  0  0  0  0  0
   24.6924  102.8563   18.9659 H   0  0  0  0  0  0  0  0  0  0  0  0
   22.0884  103.6502   18.6969 H   0  0  0  0  0  0  0  0  0  0  0  0
   21.7324  102.9349   20.7351 H   0  0  0  0  0  0  0  0  0  0  0  0
   18.2862  111.5952   18.3405 H   0  0  0  0  0  0  0  0  0  0  0  0
   16.9423  111.2058   17.2464 H   0  0  0  0  0  0  0  0  0  0  0  0
   16.1062  111.9431   19.4138 H   0  0  0  0  0  0  0  0  0  0  0  0
   16.1949  115.2966   20.1293 H   0  0  0  0  0  0  0  0  0  0  0  0
   16.4925  115.0787   17.1006 H   0  0  0  0  0  0  0  0  0  0  0  0
   14.3659  115.7411   18.8672 H   0  0  0  0  0  0  0  0  0  0  0  0
   15.0250  113.1243   17.1341 H   0  0  0  0  0  0  0  0  0  0  0  0
   14.5555  113.4206   19.8915 H   0  0  0  0  0  0  0  0  0  0  0  0
   16.9474  119.2513   22.0372 H   0  0  0  0  0  0  0  0  0  0  0  0
   21.1341  119.3841   18.8252 H   0  0  0  0  0  0  0  0  0  0  0  0
   20.6500  120.6644   19.9613 H   0  0  0  0  0  0  0  0  0  0  0  0
   19.0683  115.1286   17.5448 H   0  0  0  0  0  0  0  0  0  0  0  0
  1 13  1  0  0  0  0
  1  3  1  0  0  0  0
  1  2  1  0  0  0  0
  2  8  2  0  0  0  0
  2 56  1  0  0  0  0
  3  5  1  0  0  0  0
  3  4  2  0  0  0  0
  5  6  1  0  0  0  0
  5 57  1  0  0  0  0
  6  8  1  0  0  0  0
  6  7  2  0  0  0  0
  8  9  1  0  0  0  0
  9 58  1  0  0  0  0
  9 59  1  0  0  0  0
  9 60  1  0  0  0  0
 10 11  1  0  0  0  0
 10 20  1  0  0  0  0
 10 61  1  0  0  0  0
 10 62  1  0  0  0  0
 11 12  1  0  0  0  0
 11 15  1  0  0  0  0
 11 63  1  1  0  0  0
 12 13  1  0  0  0  0
 13 14  1  0  0  0  0
 13 64  1  1  0  0  0
 14 15  1  0  0  0  0
 14 65  1  0  0  0  0
 14 66  1  0  0  0  0
 15 16  1  0  0  0  0
 15 67  1  6  0  0  0
 16 68  1  0  0  0  0
 17 20  1  1  0  0  0
 17 21  1  0  0  0  0
 17 19  2  0  0  0  0
 17 18  1  0  0  0  0
 22 21  1  1  0  0  0
 22 25  1  0  0  0  0
 22 24  2  0  0  0  0
 22 23  1  0  0  0  0
 26 25  1  1  0  0  0
 26 29  1  0  0  0  0
 26 28  2  0  0  0  0
 26 27  1  0  0  0  0
 30 29  1  1  0  0  0
 30 33  1  0  0  0  0
 30 32  2  0  0  0  0
 30 31  1  0  0  0  0
 34 33  1  1  0  0  0
 34 37  1  0  0  0  0
 34 36  2  0  0  0  0
 34 35  1  0  0  0  0
 37 38  1  0  0  0  0
 38 39  1  0  0  0  0
 38 69  1  0  0  0  0
 38 70  1  0  0  0  0
 39 44  1  0  0  0  0
 39 40  1  0  0  0  0
 39 71  1  1  0  0  0
 40 41  1  0  0  0  0
 41 46  1  0  0  0  0
 41 42  1  0  0  0  0
 41 72  1  1  0  0  0
 42 44  1  0  0  0  0
 42 43  1  0  0  0  0
 42 73  1  6  0  0  0
 43 74  1  0  0  0  0
 44 45  1  0  0  0  0
 44 75  1  6  0  0  0
 45 76  1  0  0  0  0
 46 55  2  0  0  0  0
 46 47  1  0  0  0  0
 47 53  2  0  0  0  0
 47 48  1  0  0  0  0
 48 49  2  0  0  0  0
 49 50  1  0  0  0  0
 49 77  1  0  0  0  0
 50 51  2  0  0  0  0
 51 53  1  0  0  0  0
 51 52  1  0  0  0  0
 52 78  1  0  0  0  0
 52 79  1  0  0  0  0
 53 54  1  0  0  0  0
 54 55  1  0  0  0  0
 55 80  1  0  0  0  0
M  CHG  3   1   1   5   1  46   1
M  END
$$$$
