T6Q
 OpenBabel04111918073D

 59 62  0  0  0  0  0  0  0  0999 V2000
   -3.8387   21.3673  -18.5186 C   0  0  0  0  0  0  0  0  0  0  0  0
   -4.5162   20.1452  -18.9365 N   0  0  0  0  0  0  0  0  0  0  0  0
   -5.5332   20.1710  -19.8623 C   0  0  0  0  0  0  0  0  0  0  0  0
   -6.3213   19.1463  -20.1508 N   0  0  0  0  0  0  0  0  0  0  0  0
   -7.2826   19.4375  -21.1398 C   0  0  0  0  0  0  0  0  0  0  0  0
   -8.2210   18.3426  -21.5502 C   0  0  0  0  0  0  0  0  0  0  0  0
   -7.2334   20.7393  -21.6425 C   0  0  0  0  0  0  0  0  0  0  0  0
   -8.1115   21.4451  -22.6120 C   0  0  0  0  0  0  0  0  0  0  0  0
   -7.5128   22.2629  -23.5216 N   0  0  0  0  0  0  0  0  0  0  0  0
   -8.2669   22.9687  -24.4107 C   0  0  0  0  0  0  0  0  0  0  0  0
   -7.6119   23.8318  -25.3312 N   0  0  0  0  0  0  0  0  0  0  0  0
   -6.3916   24.5241  -25.0920 C   0  0  0  0  0  0  0  0  0  0  0  0
   -5.7720   24.4866  -23.8347 C   0  0  0  0  0  0  0  0  0  0  0  0
   -4.5665   25.1484  -23.5850 C   0  0  0  0  0  0  0  0  0  0  0  0
   -3.9628   25.8807  -24.6219 C   0  0  0  0  0  0  0  0  0  0  0  0
   -4.5539   25.9817  -25.9056 C   0  0  0  0  0  0  0  0  0  0  0  0
   -3.8880   26.6872  -26.9186 N   0  0  0  0  0  0  0  0  0  0  0  0
   -2.5910   26.0813  -27.1826 C   0  0  0  0  0  0  0  0  0  0  0  0
   -2.3451   25.6953  -28.6249 C   0  0  0  0  0  0  0  0  0  0  0  0
   -3.4500   24.8428  -29.2082 C   0  0  0  0  0  0  0  0  0  0  0  0
   -4.5647   25.6210  -29.7711 N   0  0  0  0  0  0  0  0  0  0  0  0
   -4.9067   25.4062  -31.0880 C   0  0  0  0  0  0  0  0  0  0  0  0
   -6.0584   26.1945  -31.6722 C   0  0  0  0  0  0  0  0  0  0  0  0
   -4.3030   24.6077  -31.7986 O   0  0  0  0  0  0  0  0  0  0  0  0
   -5.2954   26.5955  -28.9783 C   0  0  0  0  0  0  0  0  0  0  0  0
   -4.4529   27.4348  -28.0517 C   0  0  0  0  0  0  0  0  0  0  0  0
   -5.7496   25.2775  -26.0902 C   0  0  0  0  0  0  0  0  0  0  0  0
   -9.6163   22.8656  -24.4196 N   0  0  0  0  0  0  0  0  0  0  0  0
  -10.2042   22.0501  -23.4922 C   0  0  0  0  0  0  0  0  0  0  0  0
   -9.4946   21.3267  -22.5729 C   0  0  0  0  0  0  0  0  0  0  0  0
  -10.1626   20.5317  -21.6229 C   0  0  0  0  0  0  0  0  0  0  0  0
  -10.7183   19.8095  -20.8308 N   0  0  0  0  0  0  0  0  0  0  0  0
   -5.9501   21.5648  -20.8312 S   0  0  0  0  0  0  0  0  0  0  0  0
   -3.0546   21.1725  -17.7677 H   0  0  0  0  0  0  0  0  0  0  0  0
   -4.5598   22.0688  -18.0754 H   0  0  0  0  0  0  0  0  0  0  0  0
   -3.3635   21.8516  -19.3816 H   0  0  0  0  0  0  0  0  0  0  0  0
   -4.2094   19.2747  -18.4971 H   0  0  0  0  0  0  0  0  0  0  0  0
   -8.9063   18.6882  -22.3304 H   0  0  0  0  0  0  0  0  0  0  0  0
   -8.8163   17.9964  -20.6929 H   0  0  0  0  0  0  0  0  0  0  0  0
   -7.6739   17.4932  -21.9641 H   0  0  0  0  0  0  0  0  0  0  0  0
   -8.0695   23.9833  -26.2321 H   0  0  0  0  0  0  0  0  0  0  0  0
   -6.2315   23.9338  -23.0167 H   0  0  0  0  0  0  0  0  0  0  0  0
   -4.1165   25.0916  -22.5977 H   0  0  0  0  0  0  0  0  0  0  0  0
   -3.0213   26.4038  -24.4229 H   0  0  0  0  0  0  0  0  0  0  0  0
   -2.5095   25.1767  -26.5832 H   0  0  0  0  0  0  0  0  0  0  0  0
   -1.8220   26.7955  -26.8929 H   0  0  0  0  0  0  0  0  0  0  0  0
   -1.4112   25.1264  -28.6494 H   0  0  0  0  0  0  0  0  0  0  0  0
   -2.2272   26.5940  -29.2300 H   0  0  0  0  0  0  0  0  0  0  0  0
   -3.8166   24.1418  -28.4515 H   0  0  0  0  0  0  0  0  0  0  0  0
   -3.0058   24.2721  -30.0297 H   0  0  0  0  0  0  0  0  0  0  0  0
   -6.1976   25.9132  -32.7222 H   0  0  0  0  0  0  0  0  0  0  0  0
   -5.8452   27.2698  -31.6343 H   0  0  0  0  0  0  0  0  0  0  0  0
   -6.9825   25.9777  -31.1242 H   0  0  0  0  0  0  0  0  0  0  0  0
   -6.0622   26.0883  -28.4367 H   0  0  0  0  0  0  0  0  0  0  0  0
   -5.8267   27.2473  -29.6529 H   0  0  0  0  0  0  0  0  0  0  0  0
   -3.6369   27.8611  -28.6634 H   0  0  0  0  0  0  0  0  0  0  0  0
   -5.0477   28.2733  -27.6863 H   0  0  0  0  0  0  0  0  0  0  0  0
   -6.2242   25.2792  -27.0406 H   0  0  0  0  0  0  0  0  0  0  0  0
  -11.2980   21.9831  -23.5088 H   0  0  0  0  0  0  0  0  0  0  0  0
  1  2  1  0  0  0  0
  1 34  1  0  0  0  0
  1 35  1  0  0  0  0
  1 36  1  0  0  0  0
  2  3  1  0  0  0  0
  2 37  1  0  0  0  0
  3  4  2  0  0  0  0
  3 33  1  0  0  0  0
  4  5  1  0  0  0  0
  5  6  1  0  0  0  0
  5  7  2  0  0  0  0
  6 38  1  0  0  0  0
  6 39  1  0  0  0  0
  6 40  1  0  0  0  0
  7  8  1  0  0  0  0
  7 33  1  0  0  0  0
  8  9  2  0  0  0  0
  8 30  1  0  0  0  0
  9 10  1  0  0  0  0
 10 11  1  0  0  0  0
 10 28  2  0  0  0  0
 11 12  1  0  0  0  0
 11 41  1  0  0  0  0
 12 13  2  0  0  0  0
 12 27  1  0  0  0  0
 13 14  1  0  0  0  0
 13 42  1  0  0  0  0
 14 15  2  0  0  0  0
 14 43  1  0  0  0  0
 15 16  1  0  0  0  0
 15 44  1  0  0  0  0
 16 17  1  0  0  0  0
 16 27  2  0  0  0  0
 17 18  1  0  0  0  0
 17 26  1  0  0  0  0
 18 19  1  0  0  0  0
 18 45  1  0  0  0  0
 18 46  1  0  0  0  0
 19 20  1  0  0  0  0
 19 47  1  0  0  0  0
 19 48  1  0  0  0  0
 20 21  1  0  0  0  0
 20 49  1  0  0  0  0
 20 50  1  0  0  0  0
 21 22  1  0  0  0  0
 21 25  1  0  0  0  0
 22 23  1  0  0  0  0
 22 24  2  0  0  0  0
 23 51  1  0  0  0  0
 23 52  1  0  0  0  0
 23 53  1  0  0  0  0
 25 26  1  0  0  0  0
 25 54  1  0  0  0  0
 25 55  1  0  0  0  0
 26 56  1  0  0  0  0
 26 57  1  0  0  0  0
 27 58  1  0  0  0  0
 28 29  1  0  0  0  0
 29 30  2  0  0  0  0
 29 59  1  0  0  0  0
 30 31  1  0  0  0  0
 31 32  3  0  0  0  0
M  END
$$$$
