T9N
 OpenBabel04111918073D

 41 43  0  0  1  0  0  0  0  0999 V2000
   37.1233  -13.5214   35.1258 C   0  0  0  0  0  0  0  0  0  0  0  0
   36.5798  -14.5892   34.2886 N   0  0  0  0  0  0  0  0  0  0  0  0
   35.3878  -14.3648   33.7381 C   0  0  0  0  0  0  0  0  0  0  0  0
   34.7997  -13.1758   33.5749 N   0  0  0  0  0  0  0  0  0  0  0  0
   34.0005  -13.1158   32.3371 C   0  0  2  0  0  0  0  0  0  0  0  0
   33.0375  -11.9653   32.0981 C   0  0  0  0  0  0  0  0  0  0  0  0
   33.6654  -14.4918   31.8264 C   0  0  1  0  0  0  0  0  0  0  0  0
   33.7169  -14.9084   30.3647 C   0  0  0  0  0  0  0  0  0  0  0  0
   33.3771  -16.2307   30.1835 N   0  0  0  0  0  0  0  0  0  0  0  0
   33.2497  -16.8337   28.9700 C   0  0  0  0  0  0  0  0  0  0  0  0
   33.0094  -18.2368   28.8810 N   0  0  0  0  0  0  0  0  0  0  0  0
   33.5020  -19.2309   29.8021 C   0  0  0  0  0  0  0  0  0  0  0  0
   34.3832  -18.8402   30.8447 C   0  0  0  0  0  0  0  0  0  0  0  0
   34.8745  -19.7608   31.7877 C   0  0  0  0  0  0  0  0  0  0  0  0
   35.7281  -19.3613   32.7987 O   0  0  0  0  0  0  0  0  0  0  0  0
   34.5037  -21.1058   31.7110 C   0  0  0  0  0  0  0  0  0  0  0  0
   33.6366  -21.5297   30.6874 C   0  0  0  0  0  0  0  0  0  0  0  0
   33.1370  -20.5970   29.7324 C   0  0  0  0  0  0  0  0  0  0  0  0
   33.4174  -16.0600   27.8894 N   0  0  0  0  0  0  0  0  0  0  0  0
   33.7271  -14.7252   28.0693 C   0  0  0  0  0  0  0  0  0  0  0  0
   33.9098  -14.0554   29.2654 C   0  0  0  0  0  0  0  0  0  0  0  0
   34.2198  -12.6745   29.2970 C   0  0  0  0  0  0  0  0  0  0  0  0
   34.5068  -11.4844   29.3701 N   0  0  0  0  0  0  0  0  0  0  0  0
   34.3783  -15.5977   33.1002 S   0  0  0  0  0  0  0  0  0  0  0  0
   38.1236  -13.7545   35.5001 H   0  0  0  0  0  0  0  0  0  0  0  0
   36.4334  -13.4040   35.9673 H   0  0  0  0  0  0  0  0  0  0  0  0
   37.1468  -12.6029   34.5382 H   0  0  0  0  0  0  0  0  0  0  0  0
   37.1370  -15.4391   34.1190 H   0  0  0  0  0  0  0  0  0  0  0  0
   34.7465  -12.8023   31.6507 H   0  0  0  0  0  0  0  0  0  0  0  0
   32.4429  -12.1800   31.1973 H   0  0  0  0  0  0  0  0  0  0  0  0
   33.6548  -11.0796   31.8819 H   0  0  0  0  0  0  0  0  0  0  0  0
   32.3746  -11.7465   32.9242 H   0  0  0  0  0  0  0  0  0  0  0  0
   32.6198  -14.5624   31.9966 H   0  0  0  0  0  0  0  0  0  0  0  0
   32.4731  -18.5813   28.0842 H   0  0  0  0  0  0  0  0  0  0  0  0
   34.6818  -17.7932   30.8983 H   0  0  0  0  0  0  0  0  0  0  0  0
   35.9671  -20.1197   33.3523 H   0  0  0  0  0  0  0  0  0  0  0  0
   34.8933  -21.8150   32.4467 H   0  0  0  0  0  0  0  0  0  0  0  0
   33.3309  -22.5818   30.6090 H   0  0  0  0  0  0  0  0  0  0  0  0
   32.4686  -20.9773   28.9571 H   0  0  0  0  0  0  0  0  0  0  0  0
   33.8477  -14.1796   27.1323 H   0  0  0  0  0  0  0  0  0  0  0  0
   35.0620  -12.3094   34.0275 H   0  0  0  0  0  0  0  0  0  0  0  0
  1  2  1  0  0  0  0
  1 25  1  0  0  0  0
  1 26  1  0  0  0  0
  1 27  1  0  0  0  0
  2  3  1  0  0  0  0
  2 28  1  0  0  0  0
  3  4  2  0  0  0  0
  3 24  1  0  0  0  0
  4  5  1  0  0  0  0
  4 41  1  0  0  0  0
  5  6  1  0  0  0  0
  5  7  1  0  0  0  0
  5 29  1  6  0  0  0
  6 30  1  0  0  0  0
  6 31  1  0  0  0  0
  6 32  1  0  0  0  0
  7  8  1  0  0  0  0
  7 24  1  0  0  0  0
  7 33  1  1  0  0  0
  8  9  2  0  0  0  0
  8 21  1  0  0  0  0
  9 10  1  0  0  0  0
 10 11  1  0  0  0  0
 10 19  2  0  0  0  0
 11 12  1  0  0  0  0
 11 34  1  0  0  0  0
 12 13  2  0  0  0  0
 12 18  1  0  0  0  0
 13 14  1  0  0  0  0
 13 35  1  0  0  0  0
 14 15  1  0  0  0  0
 14 16  2  0  0  0  0
 15 36  1  0  0  0  0
 16 17  1  0  0  0  0
 16 37  1  0  0  0  0
 17 18  2  0  0  0  0
 17 38  1  0  0  0  0
 18 39  1  0  0  0  0
 19 20  1  0  0  0  0
 20 21  2  0  0  0  0
 20 40  1  0  0  0  0
 21 22  1  0  0  0  0
 22 23  3  0  0  0  0
M  END
$$$$
