TCW
 OpenBabel04111918273D

 30 31  0  0  0  0  0  0  0  0999 V2000
    1.7923    2.0684   -7.3041 O   0  0  0  0  0  0  0  0  0  0  0  0
    0.8475    1.3273   -7.0234 C   0  0  0  0  0  0  0  0  0  0  0  0
    0.6125    0.9044   -5.6114 C   0  0  0  0  0  0  0  0  0  0  0  0
    1.2517    1.5949   -4.5875 C   0  0  0  0  0  0  0  0  0  0  0  0
    1.0304    1.1991   -3.2642 C   0  0  0  0  0  0  0  0  0  0  0  0
    1.6720    1.8998   -2.2631 O   0  0  0  0  0  0  0  0  0  0  0  0
   -0.1992   -0.1890   -5.2825 C   0  0  0  0  0  0  0  0  0  0  0  0
   -0.4112   -0.5612   -3.9286 C   0  0  0  0  0  0  0  0  0  0  0  0
   -1.3145   -1.7206   -3.7213 N   0  0  0  0  0  0  0  0  0  0  0  0
   -1.1876   -2.4693   -2.7394 O   0  0  0  0  0  0  0  0  0  0  0  0
   -2.1405   -1.9460   -4.6298 O   0  0  0  0  0  0  0  0  0  0  0  0
    0.1968    0.1336   -2.8480 C   0  0  0  0  0  0  0  0  0  0  0  0
    0.0511   -0.1002   -1.5967 O   0  0  0  0  0  0  0  0  0  0  0  0
   -0.0004    0.8332   -8.1439 C   0  0  0  0  0  0  0  0  0  0  0  0
    0.6274    0.4396   -9.3298 C   0  0  0  0  0  0  0  0  0  0  0  0
   -0.1332   -0.0356  -10.3996 C   0  0  0  0  0  0  0  0  0  0  0  0
   -1.5303   -0.0871  -10.3105 C   0  0  0  0  0  0  0  0  0  0  0  0
   -2.3269   -0.5860  -11.4777 C   0  0  0  0  0  0  0  0  0  0  0  0
   -2.1550    0.3301   -9.1295 C   0  0  0  0  0  0  0  0  0  0  0  0
   -1.3956    0.7897   -8.0513 C   0  0  0  0  0  0  0  0  0  0  0  0
    1.9194    2.4280   -4.7820 H   0  0  0  0  0  0  0  0  0  0  0  0
    1.3307    1.4052   -1.4768 H   0  0  0  0  0  0  0  0  0  0  0  0
   -0.6864   -0.7593   -6.0676 H   0  0  0  0  0  0  0  0  0  0  0  0
    1.7091    0.4999   -9.4215 H   0  0  0  0  0  0  0  0  0  0  0  0
    0.3678   -0.3624  -11.3070 H   0  0  0  0  0  0  0  0  0  0  0  0
   -3.4004   -0.5709  -11.2682 H   0  0  0  0  0  0  0  0  0  0  0  0
   -2.0423   -1.6159  -11.7151 H   0  0  0  0  0  0  0  0  0  0  0  0
   -2.1432    0.0467  -12.3531 H   0  0  0  0  0  0  0  0  0  0  0  0
   -3.2390    0.3008   -9.0339 H   0  0  0  0  0  0  0  0  0  0  0  0
   -1.9083    1.1040   -7.1432 H   0  0  0  0  0  0  0  0  0  0  0  0
  1  2  2  0  0  0  0
  2  3  1  0  0  0  0
  2 14  1  0  0  0  0
  3  4  2  0  0  0  0
  3  7  1  0  0  0  0
  4  5  1  0  0  0  0
  4 21  1  0  0  0  0
  5  6  1  0  0  0  0
  5 12  2  0  0  0  0
  6 22  1  0  0  0  0
  7  8  2  0  0  0  0
  7 23  1  0  0  0  0
  8  9  1  0  0  0  0
  8 12  1  0  0  0  0
  9 10  2  0  0  0  0
  9 11  2  0  0  0  0
 12 13  1  0  0  0  0
 14 15  2  0  0  0  0
 14 20  1  0  0  0  0
 15 16  1  0  0  0  0
 15 24  1  0  0  0  0
 16 17  2  0  0  0  0
 16 25  1  0  0  0  0
 17 18  1  0  0  0  0
 17 19  1  0  0  0  0
 18 26  1  0  0  0  0
 18 27  1  0  0  0  0
 18 28  1  0  0  0  0
 19 20  2  0  0  0  0
 19 29  1  0  0  0  0
 20 30  1  0  0  0  0
M  END
$$$$
