TDI
 OpenBabel04111922243D

 40 42  0  0  1  0  0  0  0  0999 V2000
   14.7960   -6.5081   19.3559 C   0  0  0  0  0  0  0  0  0  0  0  0
   13.1320   -7.4007   20.6144 C   0  0  0  0  0  0  0  0  0  0  0  0
   13.9173   -8.5252   20.8008 C   0  0  0  0  0  0  0  0  0  0  0  0
   15.1885   -8.6061   20.2550 C   0  0  0  0  0  0  0  0  0  0  0  0
    9.1304   -9.4706   15.0940 C   0  0  0  0  0  0  0  0  0  0  0  0
   10.2706   -8.1085   15.4272 S   0  0  0  0  0  0  0  0  0  0  0  0
   10.2870   -8.2320   17.2312 C   0  0  0  0  0  0  0  0  0  0  0  0
    9.1334   -7.4455   17.8839 C   0  0  1  0  0  0  0  0  0  0  0  0
    9.1079   -7.7097   19.3922 C   0  0  0  0  0  0  0  0  0  0  0  0
   10.1610   -6.7657   19.8732 N   0  3  2  0  0  0  0  0  0  0  0  0
   10.6683   -6.7298   21.2713 C   0  0  0  0  0  0  0  0  0  0  0  0
   11.8900   -7.6062   21.2934 C   0  0  0  0  0  0  0  0  0  0  0  0
   11.9448   -8.8831   21.8232 C   0  0  0  0  0  0  0  0  0  0  0  0
   13.1816   -9.4063   21.5580 N   0  3  0  0  0  0  0  0  0  0  0  0
   16.0079   -9.6943   20.4083 N   0  0  0  0  0  0  0  0  0  0  0  0
   15.6107   -7.5579   19.5266 N   0  0  0  0  0  0  0  0  0  0  0  0
   13.5217   -6.3641   19.8269 N   0  0  0  0  0  0  0  0  0  0  0  0
   10.2718   -5.5657   18.9910 C   0  0  0  0  0  0  0  0  0  0  0  0
    9.3497   -5.9196   17.8199 C   0  0  2  0  0  0  0  0  0  0  0  0
    8.0943   -5.2828   18.0324 O   0  0  0  0  0  0  0  0  0  0  0  0
   15.1800   -5.6887   18.7636 H   0  0  0  0  0  0  0  0  0  0  0  0
    8.9817   -9.5716   14.0176 H   0  0  0  0  0  0  0  0  0  0  0  0
    8.1674   -9.2769   15.5721 H   0  0  0  0  0  0  0  0  0  0  0  0
    9.5500  -10.4023   15.4832 H   0  0  0  0  0  0  0  0  0  0  0  0
   11.2632   -7.8557   17.5560 H   0  0  0  0  0  0  0  0  0  0  0  0
   10.2468   -9.2886   17.5153 H   0  0  0  0  0  0  0  0  0  0  0  0
    8.1739   -7.7438   17.4507 H   0  0  0  0  0  0  0  0  0  0  0  0
    9.4232   -8.7276   19.6592 H   0  0  0  0  0  0  0  0  0  0  0  0
    8.1408   -7.4888   19.8602 H   0  0  0  0  0  0  0  0  0  0  0  0
    9.8824   -7.1109   21.9263 H   0  0  0  0  0  0  0  0  0  0  0  0
   10.8916   -5.7000   21.5526 H   0  0  0  0  0  0  0  0  0  0  0  0
   11.1978   -9.4513   22.3592 H   0  0  0  0  0  0  0  0  0  0  0  0
   13.5111  -10.3169   21.8508 H   0  0  0  0  0  0  0  0  0  0  0  0
   16.9450   -9.6244   20.0326 H   0  0  0  0  0  0  0  0  0  0  0  0
   15.7804  -10.4788   20.9938 H   0  0  0  0  0  0  0  0  0  0  0  0
   11.3199   -5.5081   18.6826 H   0  0  0  0  0  0  0  0  0  0  0  0
    9.9748   -4.6652   19.5355 H   0  0  0  0  0  0  0  0  0  0  0  0
    9.7672   -5.5833   16.8670 H   0  0  0  0  0  0  0  0  0  0  0  0
    8.2443   -4.3176   18.0338 H   0  0  0  0  0  0  0  0  0  0  0  0
   10.9603   -7.2436   19.4530 H   0  0  0  0  0  0  0  0  0  0  0  0
  1 16  1  0  0  0  0
  1 17  2  0  0  0  0
  1 21  1  0  0  0  0
  2  3  1  0  0  0  0
  2 12  2  0  0  0  0
  2 17  1  0  0  0  0
  3  4  2  0  0  0  0
  3 14  1  0  0  0  0
  4 15  1  0  0  0  0
  4 16  1  0  0  0  0
  5  6  1  0  0  0  0
  5 22  1  0  0  0  0
  5 23  1  0  0  0  0
  5 24  1  0  0  0  0
  6  7  1  0  0  0  0
  7  8  1  0  0  0  0
  7 25  1  0  0  0  0
  7 26  1  0  0  0  0
  8  9  1  0  0  0  0
  8 19  1  0  0  0  0
  8 27  1  6  0  0  0
  9 10  1  0  0  0  0
  9 28  1  0  0  0  0
  9 29  1  0  0  0  0
 10 11  1  0  0  0  0
 10 18  1  0  0  0  0
 10 40  1  6  0  0  0
 11 12  1  0  0  0  0
 11 30  1  0  0  0  0
 11 31  1  0  0  0  0
 12 13  1  0  0  0  0
 13 14  2  0  0  0  0
 13 32  1  0  0  0  0
 14 33  1  0  0  0  0
 15 34  1  0  0  0  0
 15 35  1  0  0  0  0
 18 19  1  0  0  0  0
 18 36  1  0  0  0  0
 18 37  1  0  0  0  0
 19 20  1  0  0  0  0
 19 38  1  6  0  0  0
 20 39  1  0  0  0  0
M  CHG  2  10   1  14   1
M  END
$$$$
