TDI
 OpenBabel04111922203D

 40 42  0  0  1  0  0  0  0  0999 V2000
   14.6885   -6.7808   19.1723 C   0  0  0  0  0  0  0  0  0  0  0  0
   12.9913   -7.7066   20.3444 C   0  0  0  0  0  0  0  0  0  0  0  0
   13.7861   -8.8280   20.5421 C   0  0  0  0  0  0  0  0  0  0  0  0
   15.0726   -8.8925   20.0320 C   0  0  0  0  0  0  0  0  0  0  0  0
    8.7782   -9.6371   14.9130 C   0  0  0  0  0  0  0  0  0  0  0  0
   10.0417   -8.3724   15.2081 S   0  0  0  0  0  0  0  0  0  0  0  0
   10.1681   -8.5113   17.0112 C   0  0  0  0  0  0  0  0  0  0  0  0
    9.0842   -7.7039   17.7369 C   0  0  1  0  0  0  0  0  0  0  0  0
    9.1370   -8.0312   19.2395 C   0  0  0  0  0  0  0  0  0  0  0  0
    9.7083   -6.8033   19.9053 N   0  3  1  0  0  0  0  0  0  0  0  0
   10.5799   -6.9990   21.1032 C   0  0  0  0  0  0  0  0  0  0  0  0
   11.7364   -7.9255   20.9782 C   0  0  0  0  0  0  0  0  0  0  0  0
   11.8107   -9.1870   21.5441 C   0  0  0  0  0  0  0  0  0  0  0  0
   13.0496   -9.7127   21.2857 N   0  3  0  0  0  0  0  0  0  0  0  0
   15.9055   -9.9673   20.1980 N   0  0  0  0  0  0  0  0  0  0  0  0
   15.5080   -7.8363   19.3288 N   0  0  0  0  0  0  0  0  0  0  0  0
   13.4312   -6.6284   19.6415 N   0  0  0  0  0  0  0  0  0  0  0  0
   10.3072   -5.9529   18.8113 C   0  0  0  0  0  0  0  0  0  0  0  0
    9.3150   -6.1903   17.6823 C   0  0  2  0  0  0  0  0  0  0  0  0
    8.0842   -5.5430   18.0286 O   0  0  0  0  0  0  0  0  0  0  0  0
   15.0894   -5.9541   18.5954 H   0  0  0  0  0  0  0  0  0  0  0  0
    8.5853   -9.7058   13.8401 H   0  0  0  0  0  0  0  0  0  0  0  0
    7.8466   -9.3755   15.4204 H   0  0  0  0  0  0  0  0  0  0  0  0
    9.1277  -10.6105   15.2681 H   0  0  0  0  0  0  0  0  0  0  0  0
   11.1653   -8.1602   17.2929 H   0  0  0  0  0  0  0  0  0  0  0  0
   10.1172   -9.5692   17.2897 H   0  0  0  0  0  0  0  0  0  0  0  0
    8.0900   -7.9664   17.3542 H   0  0  0  0  0  0  0  0  0  0  0  0
    9.7709   -8.8929   19.4592 H   0  0  0  0  0  0  0  0  0  0  0  0
    8.1402   -8.2012   19.6625 H   0  0  0  0  0  0  0  0  0  0  0  0
    9.9032   -7.3764   21.8803 H   0  0  0  0  0  0  0  0  0  0  0  0
   10.9057   -6.0036   21.4243 H   0  0  0  0  0  0  0  0  0  0  0  0
   11.0972   -9.7408   22.1431 H   0  0  0  0  0  0  0  0  0  0  0  0
   13.3909  -10.6099   21.6095 H   0  0  0  0  0  0  0  0  0  0  0  0
   16.8367   -9.8853   19.8119 H   0  0  0  0  0  0  0  0  0  0  0  0
   15.6681  -10.7816   20.7348 H   0  0  0  0  0  0  0  0  0  0  0  0
   11.2953   -6.3304   18.5666 H   0  0  0  0  0  0  0  0  0  0  0  0
   10.3370   -4.9206   19.1681 H   0  0  0  0  0  0  0  0  0  0  0  0
    9.6716   -5.8172   16.7178 H   0  0  0  0  0  0  0  0  0  0  0  0
    8.2060   -4.5774   17.9381 H   0  0  0  0  0  0  0  0  0  0  0  0
    8.8849   -6.2668   20.2183 H   0  0  0  0  0  0  0  0  0  0  0  0
  1 16  1  0  0  0  0
  1 17  2  0  0  0  0
  1 21  1  0  0  0  0
  2  3  1  0  0  0  0
  2 12  2  0  0  0  0
  2 17  1  0  0  0  0
  3  4  2  0  0  0  0
  3 14  1  0  0  0  0
  4 15  1  0  0  0  0
  4 16  1  0  0  0  0
  5  6  1  0  0  0  0
  5 22  1  0  0  0  0
  5 23  1  0  0  0  0
  5 24  1  0  0  0  0
  6  7  1  0  0  0  0
  7  8  1  0  0  0  0
  7 25  1  0  0  0  0
  7 26  1  0  0  0  0
  8  9  1  0  0  0  0
  8 19  1  0  0  0  0
  8 27  1  6  0  0  0
  9 10  1  0  0  0  0
  9 28  1  0  0  0  0
  9 29  1  0  0  0  0
 10 11  1  0  0  0  0
 10 18  1  0  0  0  0
 10 40  1  1  0  0  0
 11 12  1  0  0  0  0
 11 30  1  0  0  0  0
 11 31  1  0  0  0  0
 12 13  1  0  0  0  0
 13 14  2  0  0  0  0
 13 32  1  0  0  0  0
 14 33  1  0  0  0  0
 15 34  1  0  0  0  0
 15 35  1  0  0  0  0
 18 19  1  0  0  0  0
 18 36  1  0  0  0  0
 18 37  1  0  0  0  0
 19 20  1  0  0  0  0
 19 38  1  6  0  0  0
 20 39  1  0  0  0  0
M  CHG  2  10   1  14   1
M  END
$$$$
