TEP
 OpenBabel04111918473D

 21 22  0  0  0  0  0  0  0  0999 V2000
   28.3703    3.6620   40.5720 C   0  0  0  0  0  0  0  0  0  0  0  0
   28.5368    5.0389   40.0904 N   0  3  0  0  0  0  0  0  0  0  0  0
   27.6328    6.0240   40.5105 C   0  0  0  0  0  0  0  0  0  0  0  0
   26.7198    5.7387   41.2943 O   0  0  0  0  0  0  0  0  0  0  0  0
   27.7989    7.3345   40.0154 N   0  3  0  0  0  0  0  0  0  0  0  0
   26.8494    8.3602   40.4266 C   0  0  0  0  0  0  0  0  0  0  0  0
   28.8526    7.6103   39.1612 C   0  0  0  0  0  0  0  0  0  0  0  0
   29.7170    6.6257   38.7944 C   0  0  0  0  0  0  0  0  0  0  0  0
   29.6023    5.2961   39.2453 C   0  0  0  0  0  0  0  0  0  0  0  0
   30.4043    4.4281   38.8989 O   0  0  0  0  0  0  0  0  0  0  0  0
   30.6331    7.1949   37.9632 N   0  3  0  0  0  0  0  0  0  0  0  0
   30.2880    8.5239   37.8605 C   0  0  0  0  0  0  0  0  0  0  0  0
   29.2067    8.7985   38.5791 N   0  0  0  0  0  0  0  0  0  0  0  0
   27.5097    3.5672   41.2391 H   0  0  0  0  0  0  0  0  0  0  0  0
   29.2678    3.3328   41.1142 H   0  0  0  0  0  0  0  0  0  0  0  0
   28.2259    2.9805   39.7222 H   0  0  0  0  0  0  0  0  0  0  0  0
   26.0892    7.9535   41.1066 H   0  0  0  0  0  0  0  0  0  0  0  0
   26.3365    8.7655   39.5485 H   0  0  0  0  0  0  0  0  0  0  0  0
   27.3729    9.1689   40.9461 H   0  0  0  0  0  0  0  0  0  0  0  0
   31.4200    6.7385   37.5079 H   0  0  0  0  0  0  0  0  0  0  0  0
   30.8528    9.2306   37.2567 H   0  0  0  0  0  0  0  0  0  0  0  0
  1  2  1  0  0  0  0
  1 14  1  0  0  0  0
  1 15  1  0  0  0  0
  1 16  1  0  0  0  0
  2  3  1  0  0  0  0
  2  9  1  0  0  0  0
  3  4  2  0  0  0  0
  3  5  1  0  0  0  0
  5  6  1  0  0  0  0
  5  7  1  0  0  0  0
  6 17  1  0  0  0  0
  6 18  1  0  0  0  0
  6 19  1  0  0  0  0
  7  8  2  0  0  0  0
  7 13  1  0  0  0  0
  8  9  1  0  0  0  0
  8 11  1  0  0  0  0
  9 10  2  0  0  0  0
 11 12  2  0  0  0  0
 11 20  1  0  0  0  0
 12 13  1  0  0  0  0
 12 21  1  0  0  0  0
M  CHG  3   2   1   5   1  11   1
M  END
$$$$
