TG0
 OpenBabel04111918043D

 58 61  0  0  1  0  0  0  0  0999 V2000
   -4.3970   32.8973   -4.2854 N   0  0  0  0  0  0  0  0  0  0  0  0
   -5.4955   33.5993   -3.7914 C   0  0  0  0  0  0  0  0  0  0  0  0
   -5.6281   33.9793   -2.4323 C   0  0  0  0  0  0  0  0  0  0  0  0
   -4.5527   33.6708   -1.4284 C   0  0  0  0  0  0  0  0  0  0  0  0
   -6.7992   34.6705   -2.0117 C   0  0  0  0  0  0  0  0  0  0  0  0
   -7.0189   35.1038   -0.5749 C   0  0  0  0  0  0  0  0  0  0  0  0
   -7.4177   34.1175    0.3308 N   0  0  0  0  0  0  0  0  0  0  0  0
   -7.6829   34.4217    1.7570 C   0  0  2  0  0  0  0  0  0  0  0  0
   -6.4317   34.9560    2.4528 C   0  0  0  0  0  0  0  0  0  0  0  0
   -6.6337   35.8590    3.4821 N   0  0  0  0  0  0  0  0  0  0  0  0
   -5.4873   36.2937    4.2514 C   0  0  0  0  0  0  0  0  0  0  0  0
   -5.2404   35.4010    5.4451 C   0  0  0  0  0  0  0  0  0  0  0  0
   -3.9974   35.4272    6.0913 C   0  0  0  0  0  0  0  0  0  0  0  0
   -3.7796   34.6079    7.2060 C   0  0  0  0  0  0  0  0  0  0  0  0
   -4.7726   33.7404    7.6879 C   0  0  0  0  0  0  0  0  0  0  0  0
   -4.5736   32.9632    8.9230 C   0  0  0  0  0  0  0  0  0  0  0  0
   -4.0429   33.3450   10.1553 C   0  0  0  0  0  0  0  0  0  0  0  0
   -3.5243   34.7346   10.4658 C   0  0  0  0  0  0  0  0  0  0  0  0
   -4.0529   32.3391   11.1196 N   0  0  0  0  0  0  0  0  0  0  0  0
   -4.5713   31.2197   10.6470 C   0  0  0  0  0  0  0  0  0  0  0  0
   -5.0774   31.3135    9.0022 S   0  0  0  0  0  0  0  0  0  0  0  0
   -5.9932   33.6856    7.0077 C   0  0  0  0  0  0  0  0  0  0  0  0
   -6.2382   34.5396    5.9320 C   0  0  0  0  0  0  0  0  0  0  0  0
   -5.3139   34.5239    2.1744 O   0  0  0  0  0  0  0  0  0  0  0  0
   -8.0275   33.0640    2.3971 C   0  0  0  0  0  0  0  0  0  0  0  0
   -8.5699   32.2662    1.2360 C   0  0  1  0  0  0  0  0  0  0  0  0
   -9.9400   32.6223    1.0512 O   0  0  0  0  0  0  0  0  0  0  0  0
   -7.7361   32.7180    0.0375 C   0  0  0  0  0  0  0  0  0  0  0  0
   -6.8706   36.2668   -0.2750 O   0  0  0  0  0  0  0  0  0  0  0  0
   -7.8072   34.9787   -2.9364 C   0  0  0  0  0  0  0  0  0  0  0  0
   -7.6587   34.6194   -4.2797 C   0  0  0  0  0  0  0  0  0  0  0  0
   -6.5265   33.9132   -4.6858 C   0  0  0  0  0  0  0  0  0  0  0  0
   -4.3216   32.6797   -5.2721 H   0  0  0  0  0  0  0  0  0  0  0  0
   -3.6143   32.6355   -3.7070 H   0  0  0  0  0  0  0  0  0  0  0  0
   -3.7276   33.1126   -1.8707 H   0  0  0  0  0  0  0  0  0  0  0  0
   -4.9431   33.0492   -0.6215 H   0  0  0  0  0  0  0  0  0  0  0  0
   -4.1366   34.5915   -1.0100 H   0  0  0  0  0  0  0  0  0  0  0  0
   -8.5307   35.1046    1.8523 H   0  0  0  0  0  0  0  0  0  0  0  0
   -7.5587   36.1534    3.7728 H   0  0  0  0  0  0  0  0  0  0  0  0
   -5.6454   37.3242    4.5832 H   0  0  0  0  0  0  0  0  0  0  0  0
   -4.6098   36.2820    3.5939 H   0  0  0  0  0  0  0  0  0  0  0  0
   -3.2036   36.0819    5.7338 H   0  0  0  0  0  0  0  0  0  0  0  0
   -2.8110   34.6550    7.6963 H   0  0  0  0  0  0  0  0  0  0  0  0
   -3.1807   34.8264   11.4994 H   0  0  0  0  0  0  0  0  0  0  0  0
   -4.2935   35.5030   10.2982 H   0  0  0  0  0  0  0  0  0  0  0  0
   -2.6748   34.9992    9.8233 H   0  0  0  0  0  0  0  0  0  0  0  0
   -4.6894   30.3057   11.2157 H   0  0  0  0  0  0  0  0  0  0  0  0
   -6.7755   32.9960    7.3164 H   0  0  0  0  0  0  0  0  0  0  0  0
   -7.2207   34.5233    5.4711 H   0  0  0  0  0  0  0  0  0  0  0  0
   -8.7653   33.1716    3.2006 H   0  0  0  0  0  0  0  0  0  0  0  0
   -7.1398   32.5648    2.8097 H   0  0  0  0  0  0  0  0  0  0  0  0
   -8.5041   31.1948    1.4120 H   0  0  0  0  0  0  0  0  0  0  0  0
  -10.2574   32.1349    0.2747 H   0  0  0  0  0  0  0  0  0  0  0  0
   -6.8086   32.1420   -0.0034 H   0  0  0  0  0  0  0  0  0  0  0  0
   -8.2866   32.6150   -0.9011 H   0  0  0  0  0  0  0  0  0  0  0  0
   -8.7170   35.4845   -2.6142 H   0  0  0  0  0  0  0  0  0  0  0  0
   -8.4232   34.8903   -5.0146 H   0  0  0  0  0  0  0  0  0  0  0  0
   -6.4456   33.5951   -5.7246 H   0  0  0  0  0  0  0  0  0  0  0  0
  1  2  1  0  0  0  0
  1 33  1  0  0  0  0
  1 34  1  0  0  0  0
  2  3  2  0  0  0  0
  2 32  1  0  0  0  0
  3  4  1  0  0  0  0
  3  5  1  0  0  0  0
  4 35  1  0  0  0  0
  4 36  1  0  0  0  0
  4 37  1  0  0  0  0
  5  6  1  0  0  0  0
  5 30  2  0  0  0  0
  6  7  1  0  0  0  0
  6 29  2  0  0  0  0
  7  8  1  0  0  0  0
  7 28  1  0  0  0  0
  8  9  1  0  0  0  0
  8 25  1  0  0  0  0
  8 38  1  1  0  0  0
  9 10  1  0  0  0  0
  9 24  2  0  0  0  0
 10 11  1  0  0  0  0
 10 39  1  0  0  0  0
 11 12  1  0  0  0  0
 11 40  1  0  0  0  0
 11 41  1  0  0  0  0
 12 13  2  0  0  0  0
 12 23  1  0  0  0  0
 13 14  1  0  0  0  0
 13 42  1  0  0  0  0
 14 15  2  0  0  0  0
 14 43  1  0  0  0  0
 15 16  1  0  0  0  0
 15 22  1  0  0  0  0
 16 17  2  0  0  0  0
 16 21  1  0  0  0  0
 17 18  1  0  0  0  0
 17 19  1  0  0  0  0
 18 44  1  0  0  0  0
 18 45  1  0  0  0  0
 18 46  1  0  0  0  0
 19 20  2  0  0  0  0
 20 21  1  0  0  0  0
 20 47  1  0  0  0  0
 22 23  2  0  0  0  0
 22 48  1  0  0  0  0
 23 49  1  0  0  0  0
 25 26  1  0  0  0  0
 25 50  1  0  0  0  0
 25 51  1  0  0  0  0
 26 27  1  0  0  0  0
 26 28  1  0  0  0  0
 26 52  1  1  0  0  0
 27 53  1  0  0  0  0
 28 54  1  0  0  0  0
 28 55  1  0  0  0  0
 30 31  1  0  0  0  0
 30 56  1  0  0  0  0
 31 32  2  0  0  0  0
 31 57  1  0  0  0  0
 32 58  1  0  0  0  0
M  END
$$$$
