THM
 OpenBabel04111921313D

 31 32  0  0  1  0  0  0  0  0999 V2000
   25.7533   48.8887   -9.1261 O   0  0  0  0  0  0  0  0  0  0  0  0
   27.0046   49.2125   -8.5169 C   0  0  0  0  0  0  0  0  0  0  0  0
   28.1480   48.6126   -9.3420 C   0  0  1  0  0  0  0  0  0  0  0  0
   28.0401   47.1767   -9.2589 O   0  0  0  0  0  0  0  0  0  0  0  0
   28.0653   49.0226  -10.8097 C   0  0  1  0  0  0  0  0  0  0  0  0
   29.1854   49.8109  -11.2156 O   0  0  0  0  0  0  0  0  0  0  0  0
   28.0718   47.7396  -11.5944 C   0  0  0  0  0  0  0  0  0  0  0  0
   28.1112   46.6166  -10.5743 C   0  0  2  0  0  0  0  0  0  0  0  0
   27.0484   45.6393  -10.8318 N   0  3  0  0  0  0  0  0  0  0  0  0
   27.2785   44.7461  -11.8654 C   0  0  0  0  0  0  0  0  0  0  0  0
   28.3433   44.6905  -12.4898 O   0  0  0  0  0  0  0  0  0  0  0  0
   26.2488   43.9199  -12.1990 N   0  3  0  0  0  0  0  0  0  0  0  0
   25.0188   43.8874  -11.6056 C   0  0  0  0  0  0  0  0  0  0  0  0
   24.1663   43.0779  -11.9472 O   0  0  0  0  0  0  0  0  0  0  0  0
   24.8036   44.8892  -10.5309 C   0  0  0  0  0  0  0  0  0  0  0  0
   23.4839   44.9237   -9.8350 C   0  0  0  0  0  0  0  0  0  0  0  0
   25.8160   45.7110  -10.2200 C   0  0  0  0  0  0  0  0  0  0  0  0
   25.0448   49.2496   -8.5685 H   0  0  0  0  0  0  0  0  0  0  0  0
   27.0118   48.8036   -7.5009 H   0  0  0  0  0  0  0  0  0  0  0  0
   27.0892   50.3027   -8.4689 H   0  0  0  0  0  0  0  0  0  0  0  0
   29.1036   48.9229   -8.8981 H   0  0  0  0  0  0  0  0  0  0  0  0
   27.1652   49.6052  -11.0334 H   0  0  0  0  0  0  0  0  0  0  0  0
   29.1781   50.6433  -10.7139 H   0  0  0  0  0  0  0  0  0  0  0  0
   28.9213   47.6625  -12.2805 H   0  0  0  0  0  0  0  0  0  0  0  0
   27.1634   47.6755  -12.2046 H   0  0  0  0  0  0  0  0  0  0  0  0
   29.0717   46.0879  -10.6356 H   0  0  0  0  0  0  0  0  0  0  0  0
   26.4142   43.2608  -12.9405 H   0  0  0  0  0  0  0  0  0  0  0  0
   23.4684   45.6994   -9.0610 H   0  0  0  0  0  0  0  0  0  0  0  0
   23.2787   43.9690   -9.3397 H   0  0  0  0  0  0  0  0  0  0  0  0
   22.6695   45.1399  -10.5331 H   0  0  0  0  0  0  0  0  0  0  0  0
   25.6975   46.4662   -9.4494 H   0  0  0  0  0  0  0  0  0  0  0  0
  1  2  1  0  0  0  0
  1 18  1  0  0  0  0
  2  3  1  0  0  0  0
  2 19  1  0  0  0  0
  2 20  1  0  0  0  0
  3  4  1  0  0  0  0
  3  5  1  0  0  0  0
  3 21  1  1  0  0  0
  4  8  1  0  0  0  0
  5  6  1  0  0  0  0
  5  7  1  0  0  0  0
  5 22  1  6  0  0  0
  6 23  1  0  0  0  0
  7  8  1  0  0  0  0
  7 24  1  0  0  0  0
  7 25  1  0  0  0  0
  8  9  1  0  0  0  0
  8 26  1  6  0  0  0
  9 10  1  0  0  0  0
  9 17  1  0  0  0  0
 10 11  2  0  0  0  0
 10 12  1  0  0  0  0
 12 13  1  0  0  0  0
 12 27  1  0  0  0  0
 13 14  2  0  0  0  0
 13 15  1  0  0  0  0
 15 16  1  0  0  0  0
 15 17  2  0  0  0  0
 16 28  1  0  0  0  0
 16 29  1  0  0  0  0
 16 30  1  0  0  0  0
 17 31  1  0  0  0  0
M  CHG  2   9   1  12   1
M  END
$$$$
