TRP
 OpenBabel04111922143D

 27 28  0  0  1  0  0  0  0  0999 V2000
   40.2916   24.1117  137.0931 N   0  3  0  0  0  0  0  0  0  0  0  0
   39.7621   24.6242  135.7610 C   0  0  2  0  0  0  0  0  0  0  0  0
   40.4260   25.9630  135.3482 C   0  0  0  0  0  0  0  0  0  0  0  0
   40.0078   26.5036  134.3033 O   0  0  0  0  0  0  0  0  0  0  0  0
   38.2462   24.8159  135.8255 C   0  0  0  0  0  0  0  0  0  0  0  0
   37.5369   23.6785  136.5087 C   0  0  1  0  0  0  0  0  0  0  0  0
   37.3172   22.4169  135.9918 C   0  0  0  0  0  0  0  0  0  0  0  0
   36.9836   23.6877  137.8298 C   0  0  1  0  0  0  0  0  0  0  0  0
   36.6405   21.6809  136.9257 N   0  3  0  0  0  0  0  0  0  0  0  0
   36.4412   22.4245  138.0654 C   0  0  2  0  0  0  0  0  0  0  0  0
   36.8980   24.6591  138.8491 C   0  0  0  0  0  0  0  0  0  0  0  0
   35.8117   22.0849  139.2672 C   0  0  0  0  0  0  0  0  0  0  0  0
   36.2740   24.3377  140.0573 C   0  0  0  0  0  0  0  0  0  0  0  0
   35.7403   23.0669  140.2641 C   0  0  0  0  0  0  0  0  0  0  0  0
   41.3291   26.2988  136.1759 O   0  0  0  0  0  0  0  0  0  0  0  0
   39.8530   23.2392  137.3889 H   0  0  0  0  0  0  0  0  0  0  0  0
   41.3116   24.0468  137.0032 H   0  0  0  0  0  0  0  0  0  0  0  0
   40.0325   23.8531  135.0336 H   0  0  0  0  0  0  0  0  0  0  0  0
   37.8501   24.9100  134.8060 H   0  0  0  0  0  0  0  0  0  0  0  0
   38.0004   25.7586  136.3305 H   0  0  0  0  0  0  0  0  0  0  0  0
   37.5682   21.9888  135.0292 H   0  0  0  0  0  0  0  0  0  0  0  0
   36.3250   20.7269  136.8021 H   0  0  0  0  0  0  0  0  0  0  0  0
   37.2965   25.6588  138.7004 H   0  0  0  0  0  0  0  0  0  0  0  0
   35.3811   21.1010  139.4349 H   0  0  0  0  0  0  0  0  0  0  0  0
   36.1967   25.0893  140.8410 H   0  0  0  0  0  0  0  0  0  0  0  0
   35.2511   22.8403  141.2092 H   0  0  0  0  0  0  0  0  0  0  0  0
   40.1513   24.8606  137.7854 H   0  0  0  0  0  0  0  0  0  0  0  0
  1  2  1  0  0  0  0
  1 16  1  0  0  0  0
  1 17  1  0  0  0  0
  1 27  1  0  0  0  0
  2  3  1  0  0  0  0
  2  5  1  0  0  0  0
  2 18  1  6  0  0  0
  3  4  2  0  0  0  0
  3 15  1  0  0  0  0
  5 19  1  0  0  0  0
  5 20  1  0  0  0  0
  6  5  1  1  0  0  0
  6  7  1  0  0  0  0
  6  8  1  0  0  0  0
  7  9  1  0  0  0  0
  7 21  1  0  0  0  0
  8 10  1  0  0  0  0
  8 11  1  1  0  0  0
  9 22  1  0  0  0  0
 10  9  1  6  0  0  0
 10 12  1  0  0  0  0
 11 13  1  0  0  0  0
 11 23  1  0  0  0  0
 12 14  1  0  0  0  0
 12 24  1  0  0  0  0
 13 14  1  0  0  0  0
 13 25  1  0  0  0  0
 14 26  1  0  0  0  0
M  CHG  2   1   1   9   1
M  END
$$$$
