TZG
 OpenBabel04111918363D

 33 33  0  0  1  0  0  0  0  0999 V2000
    3.4415   35.1816  101.9713 N   0  0  0  0  0  0  0  0  0  0  0  0
    0.3914   33.3819  103.2504 C   0  0  0  0  0  0  0  0  0  0  0  0
    1.7422   33.6907  103.0475 C   0  0  0  0  0  0  0  0  0  0  0  0
    2.0648   34.7785  102.2426 C   0  0  0  0  0  0  0  0  0  0  0  0
   -2.0784   33.7906  103.0023 C   0  0  0  0  0  0  0  0  0  0  0  0
   -2.6428   34.6374  104.1450 C   0  0  1  0  0  0  0  0  0  0  0  0
   -1.0271   37.6596  101.2147 C   0  0  0  0  0  0  0  0  0  0  0  0
   -4.9604   34.5429  103.5039 O   0  0  0  0  0  0  0  0  0  0  0  0
   -4.1092   34.1894  104.3469 C   0  0  0  0  0  0  0  0  0  0  0  0
   -4.2127   33.4562  105.3885 O   0  0  0  0  0  0  0  0  0  0  0  0
   -1.8245   34.3589  105.4041 N   0  3  0  0  0  0  0  0  0  0  0  0
   -0.6380   34.1602  102.6778 C   0  0  0  0  0  0  0  0  0  0  0  0
    2.8833   32.6946  103.8763 Cl  0  0  0  0  0  0  0  0  0  0  0  0
    3.6658   36.3804  101.7813 O   0  0  0  0  0  0  0  0  0  0  0  0
    4.3096   34.2921  101.8972 O   0  0  0  0  0  0  0  0  0  0  0  0
    1.0495   35.5418  101.6571 C   0  0  0  0  0  0  0  0  0  0  0  0
   -0.3148   35.2808  101.8855 C   0  0  0  0  0  0  0  0  0  0  0  0
   -1.3561   36.1640  101.2202 C   0  0  0  0  0  0  0  0  0  0  0  0
   -1.3446   38.2965  102.5642 C   0  0  0  0  0  0  0  0  0  0  0  0
   -2.4735   38.0136  103.0555 O   0  0  0  0  0  0  0  0  0  0  0  0
   -0.4246   39.0019  103.0498 O   0  0  0  0  0  0  0  0  0  0  0  0
    0.1345   32.5292  103.8770 H   0  0  0  0  0  0  0  0  0  0  0  0
   -2.6892   33.8809  102.0943 H   0  0  0  0  0  0  0  0  0  0  0  0
   -2.1231   32.7238  103.2592 H   0  0  0  0  0  0  0  0  0  0  0  0
   -2.5598   35.7104  103.9758 H   0  0  0  0  0  0  0  0  0  0  0  0
   -1.6159   38.1637  100.4429 H   0  0  0  0  0  0  0  0  0  0  0  0
    0.0201   37.8648  100.9639 H   0  0  0  0  0  0  0  0  0  0  0  0
   -2.2635   34.9158  106.1459 H   0  0  0  0  0  0  0  0  0  0  0  0
   -2.0407   33.3858  105.6566 H   0  0  0  0  0  0  0  0  0  0  0  0
    1.3305   36.3835  101.0196 H   0  0  0  0  0  0  0  0  0  0  0  0
   -1.4549   35.8156  100.1840 H   0  0  0  0  0  0  0  0  0  0  0  0
   -2.3396   36.0182  101.6744 H   0  0  0  0  0  0  0  0  0  0  0  0
   -0.8395   34.5856  105.3002 H   0  0  0  0  0  0  0  0  0  0  0  0
  1  4  1  0  0  0  0
  1 14  2  0  0  0  0
  1 15  2  0  0  0  0
  2  3  2  0  0  0  0
  2 12  1  0  0  0  0
  2 22  1  0  0  0  0
  3  4  1  0  0  0  0
  3 13  1  0  0  0  0
  4 16  2  0  0  0  0
  5  6  1  0  0  0  0
  5 12  1  0  0  0  0
  5 23  1  0  0  0  0
  5 24  1  0  0  0  0
  6  9  1  0  0  0  0
  6 11  1  0  0  0  0
  6 25  1  6  0  0  0
  7 18  1  0  0  0  0
  7 19  1  0  0  0  0
  7 26  1  0  0  0  0
  7 27  1  0  0  0  0
  8  9  2  0  0  0  0
  9 10  1  0  0  0  0
 11 28  1  0  0  0  0
 11 29  1  0  0  0  0
 11 33  1  0  0  0  0
 12 17  2  0  0  0  0
 16 17  1  0  0  0  0
 16 30  1  0  0  0  0
 17 18  1  0  0  0  0
 18 31  1  0  0  0  0
 18 32  1  0  0  0  0
 19 20  2  0  0  0  0
 19 21  1  0  0  0  0
M  CHG  1  11   1
M  END
$$$$
