TZN
 OpenBabel04111920453D

 53 56  0  0  1  0  0  0  0  0999 V2000
  -21.7792   -1.4418  -24.6266 C   0  0  0  0  0  0  0  0  0  0  0  0
  -22.5983   -0.5520  -25.5390 C   0  0  0  0  0  0  0  0  0  0  0  0
  -21.8056   -0.6495  -26.8151 C   0  0  0  0  0  0  0  0  0  0  0  0
  -21.5885   -2.0628  -26.9118 O   0  0  0  0  0  0  0  0  0  0  0  0
  -21.1636   -2.4600  -25.5867 C   0  0  1  0  0  0  0  0  0  0  0  0
  -19.6293   -2.4468  -25.6266 C   0  0  0  0  0  0  0  0  0  0  0  0
  -18.9698   -1.5687  -25.0661 O   0  0  0  0  0  0  0  0  0  0  0  0
  -19.0292   -3.4446  -26.3758 N   0  0  0  0  0  0  0  0  0  0  0  0
  -17.5754   -3.5409  -26.3850 C   0  0  0  0  0  0  0  0  0  0  0  0
  -17.1602   -4.9689  -26.0608 C   0  0  0  0  0  0  0  0  0  0  0  0
  -19.7619   -4.5557  -27.0084 C   0  0  0  0  0  0  0  0  0  0  0  0
  -18.8630   -5.4929  -27.8465 C   0  0  0  0  0  0  0  0  0  0  0  0
  -17.6933   -5.8776  -27.0754 N   0  0  0  0  0  0  0  0  0  0  0  0
  -17.0998   -7.0994  -27.1931 C   0  0  0  0  0  0  0  0  0  0  0  0
  -16.0222   -7.3098  -26.4318 N   0  0  0  0  0  0  0  0  0  0  0  0
  -17.6062   -8.0102  -28.0359 N   0  0  0  0  0  0  0  0  0  0  0  0
  -16.9966   -9.1979  -28.1028 C   0  0  0  0  0  0  0  0  0  0  0  0
  -17.5056  -10.1832  -28.9348 C   0  0  0  0  0  0  0  0  0  0  0  0
  -16.8803  -11.4362  -29.0049 C   0  0  0  0  0  0  0  0  0  0  0  0
  -17.2430  -12.5009  -29.7839 O   0  0  0  0  0  0  0  0  0  0  0  0
  -18.3987  -12.3862  -30.5803 C   0  0  0  0  0  0  0  0  0  0  0  0
  -15.7464  -11.6907  -28.2598 C   0  0  0  0  0  0  0  0  0  0  0  0
  -15.2306  -12.9572  -28.3993 O   0  0  0  0  0  0  0  0  0  0  0  0
  -13.9185  -13.1508  -27.9287 C   0  0  0  0  0  0  0  0  0  0  0  0
  -15.2291  -10.7180  -27.4298 C   0  0  0  0  0  0  0  0  0  0  0  0
  -15.8526   -9.4735  -27.3410 C   0  0  0  0  0  0  0  0  0  0  0  0
  -15.4030   -8.4667  -26.5049 C   0  0  0  0  0  0  0  0  0  0  0  0
  -14.2845   -8.5850  -25.7135 N   0  0  0  0  0  0  0  0  0  0  0  0
  -22.3982   -1.9297  -23.8670 H   0  0  0  0  0  0  0  0  0  0  0  0
  -21.0263   -0.8503  -24.0963 H   0  0  0  0  0  0  0  0  0  0  0  0
  -22.7149    0.4675  -25.1696 H   0  0  0  0  0  0  0  0  0  0  0  0
  -23.5900   -0.9986  -25.6865 H   0  0  0  0  0  0  0  0  0  0  0  0
  -20.8333   -0.1452  -26.7259 H   0  0  0  0  0  0  0  0  0  0  0  0
  -22.3234   -0.2775  -27.6982 H   0  0  0  0  0  0  0  0  0  0  0  0
  -21.5232   -3.4686  -25.3588 H   0  0  0  0  0  0  0  0  0  0  0  0
  -17.1158   -2.8516  -25.6726 H   0  0  0  0  0  0  0  0  0  0  0  0
  -17.2388   -3.2625  -27.3916 H   0  0  0  0  0  0  0  0  0  0  0  0
  -17.5671   -5.2640  -25.0856 H   0  0  0  0  0  0  0  0  0  0  0  0
  -16.0682   -4.9981  -26.0090 H   0  0  0  0  0  0  0  0  0  0  0  0
  -20.5543   -4.1546  -27.6440 H   0  0  0  0  0  0  0  0  0  0  0  0
  -20.2237   -5.1329  -26.2073 H   0  0  0  0  0  0  0  0  0  0  0  0
  -18.5336   -4.9610  -28.7457 H   0  0  0  0  0  0  0  0  0  0  0  0
  -19.4642   -6.3502  -28.1627 H   0  0  0  0  0  0  0  0  0  0  0  0
  -18.3953   -9.9639  -29.5149 H   0  0  0  0  0  0  0  0  0  0  0  0
  -18.5155  -13.3518  -31.0996 H   0  0  0  0  0  0  0  0  0  0  0  0
  -18.2675  -11.6087  -31.3270 H   0  0  0  0  0  0  0  0  0  0  0  0
  -19.2735  -12.2260  -29.9542 H   0  0  0  0  0  0  0  0  0  0  0  0
  -13.6459  -14.1767  -28.1669 H   0  0  0  0  0  0  0  0  0  0  0  0
  -13.8859  -13.0281  -26.8441 H   0  0  0  0  0  0  0  0  0  0  0  0
  -13.2218  -12.4724  -28.4351 H   0  0  0  0  0  0  0  0  0  0  0  0
  -14.3557  -10.9164  -26.8315 H   0  0  0  0  0  0  0  0  0  0  0  0
  -13.7334   -9.4200  -25.6467 H   0  0  0  0  0  0  0  0  0  0  0  0
  -14.0594   -7.7818  -25.1390 H   0  0  0  0  0  0  0  0  0  0  0  0
  1  2  1  0  0  0  0
  1  5  1  0  0  0  0
  1 29  1  0  0  0  0
  1 30  1  0  0  0  0
  2  3  1  0  0  0  0
  2 31  1  0  0  0  0
  2 32  1  0  0  0  0
  3  4  1  0  0  0  0
  3 33  1  0  0  0  0
  3 34  1  0  0  0  0
  4  5  1  0  0  0  0
  5  6  1  0  0  0  0
  5 35  1  1  0  0  0
  6  7  2  0  0  0  0
  6  8  1  0  0  0  0
  8  9  1  0  0  0  0
  8 11  1  0  0  0  0
  9 10  1  0  0  0  0
  9 36  1  0  0  0  0
  9 37  1  0  0  0  0
 10 13  1  0  0  0  0
 10 38  1  0  0  0  0
 10 39  1  0  0  0  0
 11 12  1  0  0  0  0
 11 40  1  0  0  0  0
 11 41  1  0  0  0  0
 12 13  1  0  0  0  0
 12 42  1  0  0  0  0
 12 43  1  0  0  0  0
 13 14  1  0  0  0  0
 14 15  2  0  0  0  0
 14 16  1  0  0  0  0
 15 27  1  0  0  0  0
 16 17  2  0  0  0  0
 17 18  1  0  0  0  0
 17 26  1  0  0  0  0
 18 19  2  0  0  0  0
 18 44  1  0  0  0  0
 19 20  1  0  0  0  0
 19 22  1  0  0  0  0
 20 21  1  0  0  0  0
 21 45  1  0  0  0  0
 21 46  1  0  0  0  0
 21 47  1  0  0  0  0
 22 23  1  0  0  0  0
 22 25  2  0  0  0  0
 23 24  1  0  0  0  0
 24 48  1  0  0  0  0
 24 49  1  0  0  0  0
 24 50  1  0  0  0  0
 25 26  1  0  0  0  0
 25 51  1  0  0  0  0
 26 27  2  0  0  0  0
 27 28  1  0  0  0  0
 28 52  1  0  0  0  0
 28 53  1  0  0  0  0
M  END
$$$$
