U3P
 OpenBabel04111921473D

 32 33  0  0  1  0  0  0  0  0999 V2000
  -17.4992   40.5487   26.9909 N   0  3  0  0  0  0  0  0  0  0  0  0
  -16.4753   39.6738   27.2953 C   0  0  0  0  0  0  0  0  0  0  0  0
  -16.4878   38.4811   26.6237 N   0  3  0  0  0  0  0  0  0  0  0  0
  -17.3668   38.1004   25.6403 C   0  0  0  0  0  0  0  0  0  0  0  0
  -18.4355   39.0898   25.3742 C   0  0  0  0  0  0  0  0  0  0  0  0
  -18.4492   40.2341   26.0358 C   0  0  0  0  0  0  0  0  0  0  0  0
  -15.6011   39.8795   28.1523 O   0  0  0  0  0  0  0  0  0  0  0  0
  -17.2852   37.0358   25.0534 O   0  0  0  0  0  0  0  0  0  0  0  0
  -15.8540   45.6719   25.8585 P   0  0  0  0  0  0  0  0  0  0  0  0
  -15.6923   44.9144   24.5529 O   0  0  0  0  0  0  0  0  0  0  0  0
  -14.8360   45.2564   26.9160 O   0  0  0  0  0  0  0  0  0  0  0  0
  -16.0768   47.1649   25.7389 O   0  0  0  0  0  0  0  0  0  0  0  0
  -21.4547   43.4559   26.6672 O   0  0  0  0  0  0  0  0  0  0  0  0
  -20.1621   43.7333   26.0901 C   0  0  0  0  0  0  0  0  0  0  0  0
  -18.9881   43.5926   27.0819 C   0  0  1  0  0  0  0  0  0  0  0  0
  -18.9872   42.2704   27.6694 O   0  0  0  0  0  0  0  0  0  0  0  0
  -17.6255   43.7924   26.4119 C   0  0  1  0  0  0  0  0  0  0  0  0
  -17.2959   45.1626   26.4585 O   0  0  0  0  0  0  0  0  0  0  0  0
  -16.6951   42.9302   27.2377 C   0  0  1  0  0  0  0  0  0  0  0  0
  -16.2193   43.5904   28.4312 O   0  0  0  0  0  0  0  0  0  0  0  0
  -17.6056   41.8072   27.7272 C   0  0  2  0  0  0  0  0  0  0  0  0
  -15.7694   37.8167   26.8521 H   0  0  0  0  0  0  0  0  0  0  0  0
  -19.1963   38.8621   24.6344 H   0  0  0  0  0  0  0  0  0  0  0  0
  -19.2285   40.9592   25.8585 H   0  0  0  0  0  0  0  0  0  0  0  0
  -21.4348   42.5453   27.0049 H   0  0  0  0  0  0  0  0  0  0  0  0
  -20.0292   43.0405   25.2518 H   0  0  0  0  0  0  0  0  0  0  0  0
  -20.2005   44.7559   25.7029 H   0  0  0  0  0  0  0  0  0  0  0  0
  -19.1444   44.3269   27.8809 H   0  0  0  0  0  0  0  0  0  0  0  0
  -17.6650   43.4377   25.3718 H   0  0  0  0  0  0  0  0  0  0  0  0
  -15.8458   42.5552   26.6573 H   0  0  0  0  0  0  0  0  0  0  0  0
  -15.7206   44.3853   28.0985 H   0  0  0  0  0  0  0  0  0  0  0  0
  -17.3751   41.5941   28.7849 H   0  0  0  0  0  0  0  0  0  0  0  0
  1 21  1  0  0  0  0
  1  6  1  0  0  0  0
  1  2  1  0  0  0  0
  2  7  2  0  0  0  0
  2  3  1  0  0  0  0
  3  4  1  0  0  0  0
  3 22  1  0  0  0  0
  4  8  2  0  0  0  0
  4  5  1  0  0  0  0
  5  6  2  0  0  0  0
  5 23  1  0  0  0  0
  6 24  1  0  0  0  0
  9 18  1  0  0  0  0
  9 12  2  0  0  0  0
  9 11  1  0  0  0  0
  9 10  1  0  0  0  0
 13 14  1  0  0  0  0
 13 25  1  0  0  0  0
 14 15  1  0  0  0  0
 14 26  1  0  0  0  0
 14 27  1  0  0  0  0
 15 16  1  0  0  0  0
 15 17  1  0  0  0  0
 15 28  1  1  0  0  0
 16 21  1  0  0  0  0
 17 19  1  0  0  0  0
 17 18  1  0  0  0  0
 17 29  1  6  0  0  0
 19 21  1  0  0  0  0
 19 20  1  0  0  0  0
 19 30  1  6  0  0  0
 20 31  1  0  0  0  0
 21 32  1  1  0  0  0
M  CHG  2   1   1   3   1
M  END
$$$$
