U5P
 OpenBabel04111919003D

 34 35  0  0  1  0  0  0  0  0999 V2000
   28.6769   29.2787   37.6820 N   0  0  0  0  0  0  0  0  0  0  0  0
   28.2929   27.9566   37.5525 C   0  0  0  0  0  0  0  0  0  0  0  0
   28.1723   27.4791   36.2610 N   0  0  0  0  0  0  0  0  0  0  0  0
   28.4649   28.1152   35.0861 C   0  0  0  0  0  0  0  0  0  0  0  0
   28.7771   29.5620   35.1550 C   0  0  0  0  0  0  0  0  0  0  0  0
   28.8313   30.1537   36.5445 C   0  0  0  0  0  0  0  0  0  0  0  0
   28.1222   27.1771   38.4858 O   0  0  0  0  0  0  0  0  0  0  0  0
   28.4521   27.4959   34.0057 O   0  0  0  0  0  0  0  0  0  0  0  0
   28.7164   29.9382   39.0153 C   0  0  1  0  0  0  0  0  0  0  0  0
   29.9698   30.7966   39.2332 C   0  0  2  0  0  0  0  0  0  0  0  0
   31.0928   30.0703   39.7161 O   0  0  0  0  0  0  0  0  0  0  0  0
   29.5119   32.0112   40.0363 C   0  0  1  0  0  0  0  0  0  0  0  0
   27.9799   31.9898   39.9412 C   0  0  2  0  0  0  0  0  0  0  0  0
   30.1469   32.1683   41.3113 O   0  0  0  0  0  0  0  0  0  0  0  0
   27.6208   30.8511   39.1065 O   0  0  0  0  0  0  0  0  0  0  0  0
   27.4026   33.3392   39.4323 C   0  0  0  0  0  0  0  0  0  0  0  0
   26.0263   33.2235   39.1293 O   0  0  0  0  0  0  0  0  0  0  0  0
   25.3361   34.4412   38.2671 P   0  0  0  0  0  0  0  0  0  0  0  0
   25.9938   35.7075   38.8044 O   0  0  0  0  0  0  0  0  0  0  0  0
   25.7016   34.1197   36.8251 O   0  0  0  0  0  0  0  0  0  0  0  0
   23.8589   34.3047   38.6031 O   0  0  0  0  0  0  0  0  0  0  0  0
   27.9368   26.5162   36.1869 H   0  0  0  0  0  0  0  0  0  0  0  0
   28.0181   30.1180   34.5874 H   0  0  0  0  0  0  0  0  0  0  0  0
   29.7416   29.7492   34.6679 H   0  0  0  0  0  0  0  0  0  0  0  0
   29.8201   30.6140   36.6170 H   0  0  0  0  0  0  0  0  0  0  0  0
   28.1032   30.9621   36.6346 H   0  0  0  0  0  0  0  0  0  0  0  0
   28.6257   29.1776   39.8071 H   0  0  0  0  0  0  0  0  0  0  0  0
   30.2948   31.2402   38.2938 H   0  0  0  0  0  0  0  0  0  0  0  0
   31.8043   30.7267   39.8089 H   0  0  0  0  0  0  0  0  0  0  0  0
   29.8862   32.8801   39.4815 H   0  0  0  0  0  0  0  0  0  0  0  0
   27.5320   31.8135   40.9232 H   0  0  0  0  0  0  0  0  0  0  0  0
   29.6278   31.7500   42.0176 H   0  0  0  0  0  0  0  0  0  0  0  0
   27.9551   33.7384   38.5730 H   0  0  0  0  0  0  0  0  0  0  0  0
   27.4993   34.0557   40.2586 H   0  0  0  0  0  0  0  0  0  0  0  0
  1  2  1  0  0  0  0
  1  6  1  0  0  0  0
  1  9  1  0  0  0  0
  2  3  1  0  0  0  0
  2  7  2  0  0  0  0
  3  4  1  0  0  0  0
  3 22  1  0  0  0  0
  4  5  1  0  0  0  0
  4  8  2  0  0  0  0
  5  6  1  0  0  0  0
  5 23  1  0  0  0  0
  5 24  1  0  0  0  0
  6 25  1  0  0  0  0
  6 26  1  0  0  0  0
  9 10  1  0  0  0  0
  9 15  1  0  0  0  0
  9 27  1  1  0  0  0
 10 11  1  0  0  0  0
 10 12  1  0  0  0  0
 10 28  1  6  0  0  0
 11 29  1  0  0  0  0
 12 13  1  0  0  0  0
 12 14  1  0  0  0  0
 12 30  1  6  0  0  0
 13 15  1  0  0  0  0
 13 16  1  0  0  0  0
 13 31  1  1  0  0  0
 14 32  1  0  0  0  0
 16 17  1  0  0  0  0
 16 33  1  0  0  0  0
 16 34  1  0  0  0  0
 17 18  1  0  0  0  0
 18 19  2  0  0  0  0
 18 20  1  0  0  0  0
 18 21  1  0  0  0  0
M  END
$$$$
