U85
 OpenBabel04111918103D

 59 63  0  0  1  0  0  0  0  0999 V2000
   -5.7950  -10.2258    5.4779 C   0  0  0  0  0  0  0  0  0  0  0  0
   -6.9706   -9.9514    4.5594 N   0  0  0  0  0  0  0  0  0  0  0  0
   -7.3546   -8.5216    4.3665 C   0  0  0  0  0  0  0  0  0  0  0  0
   -7.6160  -10.9112    4.0276 C   0  0  0  0  0  0  0  0  0  0  0  0
   -8.8149  -10.7174    3.1693 C   0  0  0  0  0  0  0  0  0  0  0  0
   -9.4514  -11.7760    2.6689 C   0  0  0  0  0  0  0  0  0  0  0  0
   -7.2200  -12.3140    4.2675 C   0  0  0  0  0  0  0  0  0  0  0  0
   -7.9258  -13.2995    3.7173 C   0  0  0  0  0  0  0  0  0  0  0  0
   -9.0193  -13.0795    2.8845 N   0  3  0  0  0  0  0  0  0  0  0  0
   -9.7832  -14.2351    2.3805 C   0  0  0  0  0  0  0  0  0  0  0  0
  -10.5052  -14.8102    3.5500 C   0  0  2  0  0  0  0  0  0  0  0  0
  -11.6081  -14.1327    4.0420 C   0  0  0  0  0  0  0  0  0  0  0  0
  -12.2271  -14.6128    5.1583 C   0  0  0  0  0  0  0  0  0  0  0  0
  -10.0086  -15.9401    4.1987 C   0  0  0  0  0  0  0  0  0  0  0  0
  -10.6538  -16.4228    5.3182 C   0  0  0  0  0  0  0  0  0  0  0  0
  -11.7804  -15.7688    5.8194 C   0  0  1  0  0  0  0  0  0  0  0  0
  -12.4947  -16.2340    7.0048 C   0  0  2  0  0  0  0  0  0  0  0  0
  -13.4784  -15.4087    7.5822 C   0  0  0  0  0  0  0  0  0  0  0  0
  -14.1833  -15.7874    8.6843 C   0  0  0  0  0  0  0  0  0  0  0  0
  -12.2360  -17.4770    7.6000 C   0  0  0  0  0  0  0  0  0  0  0  0
  -12.9421  -17.8610    8.7229 C   0  0  0  0  0  0  0  0  0  0  0  0
  -13.9116  -17.0137    9.2623 C   0  0  2  0  0  0  0  0  0  0  0  0
  -14.6945  -17.4105   10.4703 C   0  0  0  0  0  0  0  0  0  0  0  0
  -14.0797  -16.9142   11.6761 N   0  3  2  0  0  0  0  0  0  0  0  0
  -13.3296  -17.8113   12.3913 C   0  0  2  0  0  0  0  0  0  0  0  0
  -13.0227  -19.0693   12.2196 N   0  0  0  0  0  0  0  0  0  0  0  0
  -12.2375  -19.3873   13.3228 C   0  0  0  0  0  0  0  0  0  0  0  0
  -12.0239  -18.4185   14.1753 N   0  0  0  0  0  0  0  0  0  0  0  0
  -12.7080  -17.3486   13.6424 C   0  0  2  0  0  0  0  0  0  0  0  0
  -12.8991  -16.0960   14.0125 C   0  0  1  0  0  0  0  0  0  0  0  0
  -12.2901  -15.7235   15.1915 N   0  0  0  0  0  0  0  0  0  0  0  0
  -13.6685  -15.1753   13.2696 N   0  0  0  0  0  0  0  0  0  0  0  0
  -14.2053  -15.6201   12.1662 C   0  0  0  0  0  0  0  0  0  0  0  0
   -5.3588   -9.2662    5.8192 H   0  0  0  0  0  0  0  0  0  0  0  0
   -5.0589  -10.8141    4.9213 H   0  0  0  0  0  0  0  0  0  0  0  0
   -6.1791  -10.8054    6.3234 H   0  0  0  0  0  0  0  0  0  0  0  0
   -8.1828   -8.4540    3.6786 H   0  0  0  0  0  0  0  0  0  0  0  0
   -6.5134   -7.9753    3.9356 H   0  0  0  0  0  0  0  0  0  0  0  0
   -7.6689   -8.1207    5.3300 H   0  0  0  0  0  0  0  0  0  0  0  0
   -9.1522   -9.7249    2.9662 H   0  0  0  0  0  0  0  0  0  0  0  0
  -10.3450  -11.6166    2.0544 H   0  0  0  0  0  0  0  0  0  0  0  0
   -6.3628  -12.4926    4.8854 H   0  0  0  0  0  0  0  0  0  0  0  0
   -7.6334  -14.3321    3.9284 H   0  0  0  0  0  0  0  0  0  0  0  0
   -9.1175  -14.9976    1.9540 H   0  0  0  0  0  0  0  0  0  0  0  0
  -10.5186  -13.9519    1.6157 H   0  0  0  0  0  0  0  0  0  0  0  0
  -11.9795  -13.2379    3.5587 H   0  0  0  0  0  0  0  0  0  0  0  0
  -13.0840  -14.0665    5.5132 H   0  0  0  0  0  0  0  0  0  0  0  0
   -9.1204  -16.4361    3.8243 H   0  0  0  0  0  0  0  0  0  0  0  0
  -10.2692  -17.3119    5.7987 H   0  0  0  0  0  0  0  0  0  0  0  0
  -13.6996  -14.4409    7.1631 H   0  0  0  0  0  0  0  0  0  0  0  0
  -14.9405  -15.1300    9.0966 H   0  0  0  0  0  0  0  0  0  0  0  0
  -11.4894  -18.1426    7.1934 H   0  0  0  0  0  0  0  0  0  0  0  0
  -12.7404  -18.8238    9.1835 H   0  0  0  0  0  0  0  0  0  0  0  0
  -14.7627  -18.5105   10.4601 H   0  0  0  0  0  0  0  0  0  0  0  0
  -15.7037  -17.0124   10.3604 H   0  0  0  0  0  0  0  0  0  0  0  0
  -11.8196  -20.4036   13.4626 H   0  0  0  0  0  0  0  0  0  0  0  0
  -12.4132  -14.7607   15.5352 H   0  0  0  0  0  0  0  0  0  0  0  0
  -11.7596  -16.4379   15.6725 H   0  0  0  0  0  0  0  0  0  0  0  0
  -14.8248  -14.9350   11.5488 H   0  0  0  0  0  0  0  0  0  0  0  0
  1  2  1  0  0  0  0
  1 34  1  0  0  0  0
  1 35  1  0  0  0  0
  1 36  1  0  0  0  0
  2  3  1  0  0  0  0
  2  4  2  0  0  0  0
  3 37  1  0  0  0  0
  3 38  1  0  0  0  0
  3 39  1  0  0  0  0
  4  5  1  0  0  0  0
  4  7  1  0  0  0  0
  5  6  1  0  0  0  0
  5 40  1  0  0  0  0
  6  9  1  0  0  0  0
  6 41  1  0  0  0  0
  7  8  1  0  0  0  0
  7 42  1  0  0  0  0
  8  9  1  0  0  0  0
  8 43  1  0  0  0  0
  9 10  1  0  0  0  0
 10 44  1  0  0  0  0
 10 45  1  0  0  0  0
 11 10  1  1  0  0  0
 11 12  1  0  0  0  0
 11 14  1  0  0  0  0
 12 13  1  0  0  0  0
 12 46  1  0  0  0  0
 13 47  1  0  0  0  0
 14 15  1  0  0  0  0
 14 48  1  0  0  0  0
 15 16  1  0  0  0  0
 15 49  1  0  0  0  0
 16 13  1  1  0  0  0
 16 17  1  0  0  0  0
 17 18  1  1  0  0  0
 17 20  1  0  0  0  0
 18 19  1  0  0  0  0
 18 50  1  0  0  0  0
 19 22  1  0  0  0  0
 19 51  1  0  0  0  0
 20 21  1  0  0  0  0
 20 52  1  0  0  0  0
 21 22  1  0  0  0  0
 21 53  1  0  0  0  0
 22 23  1  6  0  0  0
 23 54  1  0  0  0  0
 23 55  1  0  0  0  0
 24 23  1  1  0  0  0
 24 25  1  0  0  0  0
 24 33  1  0  0  0  0
 25 26  1  1  0  0  0
 25 29  1  0  0  0  0
 26 27  1  0  0  0  0
 27 28  1  0  0  0  0
 27 56  1  0  0  0  0
 29 28  1  1  0  0  0
 29 30  1  0  0  0  0
 30 31  1  6  0  0  0
 30 32  1  0  0  0  0
 31 57  1  0  0  0  0
 31 58  1  0  0  0  0
 32 33  1  0  0  0  0
 33 59  1  0  0  0  0
M  CHG  2   9   1  24   1
M  END
$$$$
