UCA
 OpenBabel04111922163D

112116  0  0  1  0  0  0  0  0999 V2000
   -8.0814   38.7368    5.6426 C   0  0  0  0  0  0  0  0  0  0  0  0
   -9.1340   39.2724    4.9122 C   0  0  0  0  0  0  0  0  0  0  0  0
   -9.6643   38.4763    3.8758 C   0  0  0  0  0  0  0  0  0  0  0  0
   -8.6179   40.7571    6.3573 C   0  0  0  0  0  0  0  0  0  0  0  0
   -9.1133   37.2645    3.6351 N   0  0  0  0  0  0  0  0  0  0  0  0
   -7.5154   37.5329    5.4522 N   0  0  0  0  0  0  0  0  0  0  0  0
   -7.9565   43.6673   24.4388 O   0  0  0  0  0  0  0  0  0  0  0  0
   -6.8099   43.4912   24.0183 C   0  0  0  0  0  0  0  0  0  0  0  0
   -5.6622   43.6715   24.9728 C   0  0  0  0  0  0  0  0  0  0  0  0
   -4.3143   43.9350   24.3064 C   0  0  0  0  0  0  0  0  0  0  0  0
   -4.0310   43.0091   23.1398 C   0  0  2  0  0  0  0  0  0  0  0  0
   -3.8593   41.5430   23.5646 C   0  0  0  0  0  0  0  0  0  0  0  0
   -2.8579   43.3474   22.2118 C   0  0  0  0  0  0  0  0  0  0  0  0
   -1.7911   43.7104   22.6383 O   0  0  0  0  0  0  0  0  0  0  0  0
   -3.2163   43.1463   20.7673 C   0  0  0  0  0  0  0  0  0  0  0  0
   -4.6480   42.6082   20.8147 C   0  0  0  0  0  0  0  0  0  0  0  0
   -5.1505   43.2643   22.1054 C   0  0  1  0  0  0  0  0  0  0  0  0
   -6.5413   42.9401   22.6190 C   0  0  2  0  0  0  0  0  0  0  0  0
   -7.5523   43.6154   21.6998 C   0  0  0  0  0  0  0  0  0  0  0  0
   -8.2573   42.5644   20.9074 C   0  0  0  0  0  0  0  0  0  0  0  0
   -9.5103   43.1109   20.3236 C   0  0  0  0  0  0  0  0  0  0  0  0
  -10.0993   44.1355   20.6868 O   0  0  0  0  0  0  0  0  0  0  0  0
  -10.2241   41.9184   19.2583 S   0  0  0  0  0  0  0  0  0  0  0  0
  -11.9424   42.3997   19.5048 C   0  0  0  0  0  0  0  0  0  0  0  0
  -12.4535   43.3077   18.3956 C   0  0  0  0  0  0  0  0  0  0  0  0
  -11.8429   43.0676   17.1028 N   0  0  0  0  0  0  0  0  0  0  0  0
  -11.2105   44.1107   16.4465 C   0  0  0  0  0  0  0  0  0  0  0  0
  -11.3936   45.2769   16.7767 O   0  0  0  0  0  0  0  0  0  0  0  0
  -10.3870   43.6579   15.2562 C   0  0  0  0  0  0  0  0  0  0  0  0
   -9.4704   44.7762   14.7834 C   0  0  0  0  0  0  0  0  0  0  0  0
   -8.2450   44.7143   15.5406 N   0  0  0  0  0  0  0  0  0  0  0  0
   -7.9372   45.4973   16.6201 C   0  0  0  0  0  0  0  0  0  0  0  0
   -8.5651   46.4467   17.0342 O   0  0  0  0  0  0  0  0  0  0  0  0
   -6.6560   45.0178   17.3224 C   0  0  2  0  0  0  0  0  0  0  0  0
   -6.7440   45.3223   18.7328 O   0  0  0  0  0  0  0  0  0  0  0  0
   -5.3862   45.6557   16.7061 C   0  0  0  0  0  0  0  0  0  0  0  0
   -4.1801   45.0531   17.4543 C   0  0  0  0  0  0  0  0  0  0  0  0
   -5.3715   47.1807   16.9277 C   0  0  0  0  0  0  0  0  0  0  0  0
   -5.2633   45.3619   15.1866 C   0  0  0  0  0  0  0  0  0  0  0  0
   -5.2382   43.9660   14.9704 O   0  0  0  0  0  0  0  0  0  0  0  0
   -4.4514   43.4054   13.6469 P   0  0  1  0  0  0  0  0  0  0  0  0
   -3.1822   44.2353   13.5596 O   0  0  0  0  0  0  0  0  0  0  0  0
   -4.3669   41.9120   13.8208 O   0  0  0  0  0  0  0  0  0  0  0  0
   -5.4546   43.8505   12.4779 O   0  0  0  0  0  0  0  0  0  0  0  0
   -6.8878   43.2832   12.0510 P   0  0  2  0  0  0  0  0  0  0  0  0
   -7.6136   44.3550   11.2481 O   0  0  0  0  0  0  0  0  0  0  0  0
   -7.6337   42.7331   13.2561 O   0  0  0  0  0  0  0  0  0  0  0  0
   -6.5226   42.0730   11.0282 O   0  0  0  0  0  0  0  0  0  0  0  0
   -5.9125   42.3332    9.7539 C   0  0  0  0  0  0  0  0  0  0  0  0
   -5.5296   40.9790    9.1022 C   0  0  1  0  0  0  0  0  0  0  0  0
   -6.8061   40.3745    8.6412 O   0  0  0  0  0  0  0  0  0  0  0  0
   -4.5634   41.0377    7.8792 C   0  0  1  0  0  0  0  0  0  0  0  0
   -3.5344   40.0481    7.9204 O   0  0  0  0  0  0  0  0  0  0  0  0
   -1.9510   40.3547    8.2226 P   0  0  0  0  0  0  0  0  0  0  0  0
   -1.2626   39.2774    7.3885 O   0  0  0  0  0  0  0  0  0  0  0  0
   -1.8213   40.1348    9.7137 O   0  0  0  0  0  0  0  0  0  0  0  0
   -1.6768   41.7661    7.7299 O   0  0  0  0  0  0  0  0  0  0  0  0
   -5.4637   40.5716    6.7244 C   0  0  1  0  0  0  0  0  0  0  0  0
   -4.8037   39.7872    5.7228 O   0  0  0  0  0  0  0  0  0  0  0  0
   -6.5416   39.7347    7.3944 C   0  0  2  0  0  0  0  0  0  0  0  0
   -7.7495   39.7074    6.5599 N   0  3  0  0  0  0  0  0  0  0  0  0
   -9.4688   40.5296    5.3717 N   0  0  0  0  0  0  0  0  0  0  0  0
   -8.0829   36.8788    4.4238 C   0  0  0  0  0  0  0  0  0  0  0  0
  -10.7433   38.8608    3.0994 N   0  0  0  0  0  0  0  0  0  0  0  0
   -8.5506   41.6675    6.9410 H   0  0  0  0  0  0  0  0  0  0  0  0
   -5.6307   42.7755   25.6025 H   0  0  0  0  0  0  0  0  0  0  0  0
   -5.9239   44.5254   25.6084 H   0  0  0  0  0  0  0  0  0  0  0  0
   -3.5264   43.8581   25.0619 H   0  0  0  0  0  0  0  0  0  0  0  0
   -4.3032   44.9790   23.9595 H   0  0  0  0  0  0  0  0  0  0  0  0
   -3.6314   40.8814   22.7204 H   0  0  0  0  0  0  0  0  0  0  0  0
   -4.7363   41.1369   24.0730 H   0  0  0  0  0  0  0  0  0  0  0  0
   -3.0031   41.4650   24.2455 H   0  0  0  0  0  0  0  0  0  0  0  0
   -2.5271   42.4498   20.2675 H   0  0  0  0  0  0  0  0  0  0  0  0
   -3.1928   44.1248   20.2587 H   0  0  0  0  0  0  0  0  0  0  0  0
   -4.6513   41.5136   20.8713 H   0  0  0  0  0  0  0  0  0  0  0  0
   -5.2222   42.8902   19.9293 H   0  0  0  0  0  0  0  0  0  0  0  0
   -5.1514   44.3484   21.8996 H   0  0  0  0  0  0  0  0  0  0  0  0
   -6.6713   41.8503   22.6791 H   0  0  0  0  0  0  0  0  0  0  0  0
   -7.0826   44.3392   21.0257 H   0  0  0  0  0  0  0  0  0  0  0  0
   -8.2801   44.2155   22.2571 H   0  0  0  0  0  0  0  0  0  0  0  0
   -8.5385   41.7241   21.5585 H   0  0  0  0  0  0  0  0  0  0  0  0
   -7.5831   42.1733   20.1235 H   0  0  0  0  0  0  0  0  0  0  0  0
  -12.1003   42.8726   20.4837 H   0  0  0  0  0  0  0  0  0  0  0  0
  -12.5015   41.4665   19.5299 H   0  0  0  0  0  0  0  0  0  0  0  0
  -12.3215   44.3536   18.6957 H   0  0  0  0  0  0  0  0  0  0  0  0
  -13.5254   43.1357   18.2763 H   0  0  0  0  0  0  0  0  0  0  0  0
  -11.5368   42.1295   16.8667 H   0  0  0  0  0  0  0  0  0  0  0  0
  -11.0866   43.3813   14.4699 H   0  0  0  0  0  0  0  0  0  0  0  0
   -9.8071   42.7703   15.5293 H   0  0  0  0  0  0  0  0  0  0  0  0
   -9.9215   45.7720   14.8924 H   0  0  0  0  0  0  0  0  0  0  0  0
   -9.2105   44.6426   13.7362 H   0  0  0  0  0  0  0  0  0  0  0  0
   -7.6033   43.9686   15.2173 H   0  0  0  0  0  0  0  0  0  0  0  0
   -6.6202   43.9255   17.2559 H   0  0  0  0  0  0  0  0  0  0  0  0
   -7.0713   46.2406   18.7611 H   0  0  0  0  0  0  0  0  0  0  0  0
   -3.2361   45.4559   17.0776 H   0  0  0  0  0  0  0  0  0  0  0  0
   -4.1522   43.9622   17.3542 H   0  0  0  0  0  0  0  0  0  0  0  0
   -4.2327   45.2813   18.5242 H   0  0  0  0  0  0  0  0  0  0  0  0
   -6.2000   47.6715   16.4060 H   0  0  0  0  0  0  0  0  0  0  0  0
   -4.4399   47.6232   16.5604 H   0  0  0  0  0  0  0  0  0  0  0  0
   -5.4493   47.4355   17.9906 H   0  0  0  0  0  0  0  0  0  0  0  0
   -4.3632   45.8468   14.7958 H   0  0  0  0  0  0  0  0  0  0  0  0
   -6.1035   45.7759   14.6208 H   0  0  0  0  0  0  0  0  0  0  0  0
   -5.0433   42.9807    9.8759 H   0  0  0  0  0  0  0  0  0  0  0  0
   -6.6596   42.8415    9.1264 H   0  0  0  0  0  0  0  0  0  0  0  0
   -5.1307   40.3046    9.8670 H   0  0  0  0  0  0  0  0  0  0  0  0
   -4.1707   42.0424    7.6820 H   0  0  0  0  0  0  0  0  0  0  0  0
   -5.9143   41.4440    6.2380 H   0  0  0  0  0  0  0  0  0  0  0  0
   -4.0850   39.3324    6.2321 H   0  0  0  0  0  0  0  0  0  0  0  0
   -6.2500   38.6943    7.5847 H   0  0  0  0  0  0  0  0  0  0  0  0
   -7.6617   35.9024    4.2033 H   0  0  0  0  0  0  0  0  0  0  0  0
  -10.9760   38.2786    2.3135 H   0  0  0  0  0  0  0  0  0  0  0  0
  -11.0556   39.8176    3.1927 H   0  0  0  0  0  0  0  0  0  0  0  0
  1  2  2  0  0  0  0
  1  6  1  0  0  0  0
  1 61  1  0  0  0  0
  2  3  1  0  0  0  0
  2 62  1  0  0  0  0
  3  5  2  0  0  0  0
  3 64  1  0  0  0  0
  4 61  2  0  0  0  0
  4 62  1  0  0  0  0
  4 65  1  0  0  0  0
  5 63  1  0  0  0  0
  6 63  2  0  0  0  0
  7  8  2  0  0  0  0
  8  9  1  0  0  0  0
  8 18  1  0  0  0  0
  9 10  1  0  0  0  0
  9 66  1  0  0  0  0
  9 67  1  0  0  0  0
 10 11  1  0  0  0  0
 10 68  1  0  0  0  0
 10 69  1  0  0  0  0
 11 12  1  1  0  0  0
 11 13  1  0  0  0  0
 11 17  1  0  0  0  0
 12 70  1  0  0  0  0
 12 71  1  0  0  0  0
 12 72  1  0  0  0  0
 13 14  2  0  0  0  0
 13 15  1  0  0  0  0
 15 16  1  0  0  0  0
 15 73  1  0  0  0  0
 15 74  1  0  0  0  0
 16 17  1  0  0  0  0
 16 75  1  0  0  0  0
 16 76  1  0  0  0  0
 17 18  1  0  0  0  0
 17 77  1  6  0  0  0
 18 19  1  0  0  0  0
 18 78  1  6  0  0  0
 19 20  1  0  0  0  0
 19 79  1  0  0  0  0
 19 80  1  0  0  0  0
 20 21  1  0  0  0  0
 20 81  1  0  0  0  0
 20 82  1  0  0  0  0
 21 22  2  0  0  0  0
 21 23  1  0  0  0  0
 23 24  1  0  0  0  0
 24 25  1  0  0  0  0
 24 83  1  0  0  0  0
 24 84  1  0  0  0  0
 25 26  1  0  0  0  0
 25 85  1  0  0  0  0
 25 86  1  0  0  0  0
 26 27  1  0  0  0  0
 26 87  1  0  0  0  0
 27 28  2  0  0  0  0
 27 29  1  0  0  0  0
 29 30  1  0  0  0  0
 29 88  1  0  0  0  0
 29 89  1  0  0  0  0
 30 31  1  0  0  0  0
 30 90  1  0  0  0  0
 30 91  1  0  0  0  0
 31 32  1  0  0  0  0
 31 92  1  0  0  0  0
 32 33  2  0  0  0  0
 32 34  1  0  0  0  0
 34 35  1  0  0  0  0
 34 36  1  0  0  0  0
 34 93  1  6  0  0  0
 35 94  1  0  0  0  0
 36 37  1  0  0  0  0
 36 38  1  0  0  0  0
 36 39  1  0  0  0  0
 37 95  1  0  0  0  0
 37 96  1  0  0  0  0
 37 97  1  0  0  0  0
 38 98  1  0  0  0  0
 38 99  1  0  0  0  0
 38100  1  0  0  0  0
 39 40  1  0  0  0  0
 39101  1  0  0  0  0
 39102  1  0  0  0  0
 41 40  1  1  0  0  0
 41 42  2  0  0  0  0
 41 43  1  0  0  0  0
 41 44  1  0  0  0  0
 45 44  1  1  0  0  0
 45 46  2  0  0  0  0
 45 47  1  0  0  0  0
 45 48  1  0  0  0  0
 48 49  1  0  0  0  0
 49 50  1  0  0  0  0
 49103  1  0  0  0  0
 49104  1  0  0  0  0
 50 51  1  0  0  0  0
 50 52  1  0  0  0  0
 50105  1  1  0  0  0
 51 60  1  0  0  0  0
 52 53  1  0  0  0  0
 52 58  1  0  0  0  0
 52106  1  6  0  0  0
 53 54  1  0  0  0  0
 54 55  2  0  0  0  0
 54 56  1  0  0  0  0
 54 57  1  0  0  0  0
 58 59  1  0  0  0  0
 58 60  1  0  0  0  0
 58107  1  6  0  0  0
 59108  1  0  0  0  0
 60 61  1  0  0  0  0
 60109  1  1  0  0  0
 63110  1  0  0  0  0
 64111  1  0  0  0  0
 64112  1  0  0  0  0
M  CHG  1  61   1
M  END
$$$$
