UDP
 OpenBabel04111918373D

 36 37  0  0  1  0  0  0  0  0999 V2000
    6.2693   27.2940   17.9592 N   0  3  0  0  0  0  0  0  0  0  0  0
    4.9814   26.9909   18.3608 C   0  0  0  0  0  0  0  0  0  0  0  0
    4.3582   25.9735   17.6937 N   0  3  0  0  0  0  0  0  0  0  0  0
    4.9455   25.1740   16.7335 C   0  0  0  0  0  0  0  0  0  0  0  0
    6.3478   25.5261   16.4234 C   0  0  0  0  0  0  0  0  0  0  0  0
    6.8567   26.6380   16.8908 C   0  0  0  0  0  0  0  0  0  0  0  0
    4.3884   27.6304   19.2215 O   0  0  0  0  0  0  0  0  0  0  0  0
    4.3604   24.2937   16.1596 O   0  0  0  0  0  0  0  0  0  0  0  0
    6.9639   28.3174   18.7353 C   0  0  1  0  0  0  0  0  0  0  0  0
    7.4838   27.7432   20.0517 C   0  0  2  0  0  0  0  0  0  0  0  0
    7.2561   28.7373   21.0669 O   0  0  0  0  0  0  0  0  0  0  0  0
    8.9592   27.4890   19.7475 C   0  0  1  0  0  0  0  0  0  0  0  0
    9.2868   28.6607   18.8382 C   0  0  2  0  0  0  0  0  0  0  0  0
    8.0904   28.8758   18.0399 O   0  0  0  0  0  0  0  0  0  0  0  0
    9.7334   27.4414   20.9481 O   0  0  0  0  0  0  0  0  0  0  0  0
   10.5041   28.4186   17.9301 C   0  0  0  0  0  0  0  0  0  0  0  0
   10.1794   27.4030   16.9781 O   0  0  0  0  0  0  0  0  0  0  0  0
   11.4237   26.5178   16.3174 P   0  0  2  0  0  0  0  0  0  0  0  0
   10.7208   25.3148   15.6808 O   0  0  0  0  0  0  0  0  0  0  0  0
   12.3545   26.2077   17.4565 O   0  0  0  0  0  0  0  0  0  0  0  0
   11.9958   27.5628   15.2112 O   0  0  0  0  0  0  0  0  0  0  0  0
   13.5427   28.1194   15.0521 P   0  0  0  0  0  0  0  0  0  0  0  0
   13.5895   28.7963   13.6709 O   0  0  0  0  0  0  0  0  0  0  0  0
   14.5001   26.9377   15.1012 O   0  0  0  0  0  0  0  0  0  0  0  0
   13.7615   29.1397   16.1720 O   0  0  0  0  0  0  0  0  0  0  0  0
    3.3855   25.7638   17.9207 H   0  0  0  0  0  0  0  0  0  0  0  0
    6.8834   24.8447   15.7599 H   0  0  0  0  0  0  0  0  0  0  0  0
    7.7601   27.0866   16.4692 H   0  0  0  0  0  0  0  0  0  0  0  0
    6.2671   29.1507   18.9295 H   0  0  0  0  0  0  0  0  0  0  0  0
    6.9571   26.8241   20.3323 H   0  0  0  0  0  0  0  0  0  0  0  0
    7.6040   28.3665   21.8951 H   0  0  0  0  0  0  0  0  0  0  0  0
    9.0645   26.5328   19.2159 H   0  0  0  0  0  0  0  0  0  0  0  0
    9.4633   29.5602   19.4472 H   0  0  0  0  0  0  0  0  0  0  0  0
   10.6684   27.3591   20.6574 H   0  0  0  0  0  0  0  0  0  0  0  0
   11.3513   28.1206   18.5530 H   0  0  0  0  0  0  0  0  0  0  0  0
   10.7456   29.3496   17.4067 H   0  0  0  0  0  0  0  0  0  0  0  0
  1  2  1  0  0  0  0
  1  6  1  0  0  0  0
  1  9  1  0  0  0  0
  2  3  1  0  0  0  0
  2  7  2  0  0  0  0
  3  4  1  0  0  0  0
  3 26  1  0  0  0  0
  4  5  1  0  0  0  0
  4  8  2  0  0  0  0
  5  6  2  0  0  0  0
  5 27  1  0  0  0  0
  6 28  1  0  0  0  0
  9 10  1  0  0  0  0
  9 14  1  0  0  0  0
  9 29  1  1  0  0  0
 10 11  1  0  0  0  0
 10 12  1  0  0  0  0
 10 30  1  1  0  0  0
 11 31  1  0  0  0  0
 12 13  1  0  0  0  0
 12 15  1  0  0  0  0
 12 32  1  6  0  0  0
 13 14  1  0  0  0  0
 13 16  1  0  0  0  0
 13 33  1  1  0  0  0
 15 34  1  0  0  0  0
 16 17  1  0  0  0  0
 16 35  1  0  0  0  0
 16 36  1  0  0  0  0
 18 17  1  1  0  0  0
 18 19  2  0  0  0  0
 18 20  1  0  0  0  0
 18 21  1  0  0  0  0
 21 22  1  0  0  0  0
 22 23  2  0  0  0  0
 22 24  1  0  0  0  0
 22 25  1  0  0  0  0
M  CHG  2   1   1   3   1
M  END
$$$$
