URI
 OpenBabel04111921333D

 29 30  0  0  1  0  0  0  0  0999 V2000
  -17.8669   58.9671  -34.4639 N   0  3  0  0  0  0  0  0  0  0  0  0
  -16.9633   57.9559  -34.7593 C   0  0  0  0  0  0  0  0  0  0  0  0
  -15.6312   58.3205  -34.7303 N   0  3  0  0  0  0  0  0  0  0  0  0
  -15.1348   59.5324  -34.3322 C   0  0  0  0  0  0  0  0  0  0  0  0
  -16.1547   60.5278  -33.9627 C   0  0  0  0  0  0  0  0  0  0  0  0
  -17.4461   60.2105  -34.0537 C   0  0  0  0  0  0  0  0  0  0  0  0
  -17.2603   56.7952  -35.0265 O   0  0  0  0  0  0  0  0  0  0  0  0
  -13.9381   59.7783  -34.2548 O   0  0  0  0  0  0  0  0  0  0  0  0
  -19.2932   58.6564  -34.4937 C   0  0  1  0  0  0  0  0  0  0  0  0
  -19.8174   58.0616  -35.8043 C   0  0  1  0  0  0  0  0  0  0  0  0
  -21.0041   57.2267  -35.3384 C   0  0  1  0  0  0  0  0  0  0  0  0
  -20.7215   56.9326  -33.8576 C   0  0  2  0  0  0  0  0  0  0  0  0
  -20.1625   59.0867  -36.7415 O   0  0  0  0  0  0  0  0  0  0  0  0
  -22.2283   57.9706  -35.4697 O   0  0  0  0  0  0  0  0  0  0  0  0
  -19.6115   57.7527  -33.4346 O   0  0  0  0  0  0  0  0  0  0  0  0
  -20.4093   55.4704  -33.5407 C   0  0  0  0  0  0  0  0  0  0  0  0
  -19.3308   54.9669  -34.3142 O   0  0  0  0  0  0  0  0  0  0  0  0
  -14.9671   57.5998  -34.9541 H   0  0  0  0  0  0  0  0  0  0  0  0
  -15.8062   61.4898  -33.6235 H   0  0  0  0  0  0  0  0  0  0  0  0
  -18.2161   60.9428  -33.7980 H   0  0  0  0  0  0  0  0  0  0  0  0
  -19.8492   59.5825  -34.2903 H   0  0  0  0  0  0  0  0  0  0  0  0
  -19.0910   57.4116  -36.2970 H   0  0  0  0  0  0  0  0  0  0  0  0
  -21.1241   56.3161  -35.9351 H   0  0  0  0  0  0  0  0  0  0  0  0
  -21.5788   57.2305  -33.2433 H   0  0  0  0  0  0  0  0  0  0  0  0
  -20.8656   59.6308  -36.3548 H   0  0  0  0  0  0  0  0  0  0  0  0
  -22.1789   58.7772  -34.9321 H   0  0  0  0  0  0  0  0  0  0  0  0
  -21.2871   54.8484  -33.7438 H   0  0  0  0  0  0  0  0  0  0  0  0
  -20.1483   55.3582  -32.4823 H   0  0  0  0  0  0  0  0  0  0  0  0
  -18.5450   55.5295  -34.1477 H   0  0  0  0  0  0  0  0  0  0  0  0
  1  2  1  0  0  0  0
  1  6  1  0  0  0  0
  1  9  1  0  0  0  0
  2  3  1  0  0  0  0
  2  7  2  0  0  0  0
  3  4  1  0  0  0  0
  3 18  1  0  0  0  0
  4  5  1  0  0  0  0
  4  8  2  0  0  0  0
  5  6  2  0  0  0  0
  5 19  1  0  0  0  0
  6 20  1  0  0  0  0
  9 10  1  0  0  0  0
  9 15  1  0  0  0  0
  9 21  1  1  0  0  0
 10 11  1  0  0  0  0
 10 13  1  0  0  0  0
 10 22  1  6  0  0  0
 11 12  1  0  0  0  0
 11 14  1  0  0  0  0
 11 23  1  6  0  0  0
 12 15  1  0  0  0  0
 12 16  1  0  0  0  0
 12 24  1  1  0  0  0
 13 25  1  0  0  0  0
 14 26  1  0  0  0  0
 16 17  1  0  0  0  0
 16 27  1  0  0  0  0
 16 28  1  0  0  0  0
 17 29  1  0  0  0  0
M  CHG  2   1   1   3   1
M  END
$$$$
