UX9
 OpenBabel04111917363D

102107  0  0  1  0  0  0  0  0999 V2000
   10.6150   23.4985    5.3670 C   0  0  0  0  0  0  0  0  0  0  0  0
   10.0317   22.5010    5.6495 O   0  0  0  0  0  0  0  0  0  0  0  0
   11.6514   23.6387    4.2211 C   0  0  1  0  0  0  0  0  0  0  0  0
   11.8864   25.1583    4.0896 C   0  0  1  0  0  0  0  0  0  0  0  0
   11.3160   25.7716    5.3876 C   0  0  0  0  0  0  0  0  0  0  0  0
   10.4665   24.7546    5.9788 N   0  0  0  0  0  0  0  0  0  0  0  0
    9.4624   24.9339    7.0701 C   0  0  1  0  0  0  0  0  0  0  0  0
    9.7557   25.9251    8.1934 C   0  0  0  0  0  0  0  0  0  0  0  0
    8.5768   26.6148    8.6166 C   0  0  0  0  0  0  0  0  0  0  0  0
    7.3812   26.1530    7.7986 C   0  0  0  0  0  0  0  0  0  0  0  0
    8.0648   25.4551    6.5830 C   0  0  1  0  0  0  0  0  0  0  0  0
    8.1933   26.4401    5.5349 O   0  0  0  0  0  0  0  0  0  0  0  0
    8.6108   27.5787    9.6438 C   0  0  0  0  0  0  0  0  0  0  0  0
    9.8582   27.8426   10.2694 C   0  0  0  0  0  0  0  0  0  0  0  0
   11.0263   27.1314    9.8601 C   0  0  0  0  0  0  0  0  0  0  0  0
   10.9710   26.1592    8.8261 C   0  0  0  0  0  0  0  0  0  0  0  0
   13.2487   25.5722    3.9344 O   0  0  0  0  0  0  0  0  0  0  0  0
   12.9561   22.8148    4.5746 C   0  0  0  0  0  0  0  0  0  0  0  0
   13.8530   23.2819    5.7778 C   0  0  0  0  0  0  0  0  0  0  0  0
   10.9106   23.1041    2.9085 C   0  0  0  0  0  0  0  0  0  0  0  0
    9.4602   23.6692    2.5616 C   0  0  0  0  0  0  0  0  0  0  0  0
    8.2728   23.0098    3.0145 C   0  0  0  0  0  0  0  0  0  0  0  0
    6.9719   23.5355    2.7323 C   0  0  0  0  0  0  0  0  0  0  0  0
    6.8348   24.7286    1.9860 C   0  0  0  0  0  0  0  0  0  0  0  0
    7.9902   25.3956    1.5191 C   0  0  0  0  0  0  0  0  0  0  0  0
    9.2875   24.8675    1.8003 C   0  0  0  0  0  0  0  0  0  0  0  0
   16.9032   17.9031   10.9081 C   0  0  0  0  0  0  0  0  0  0  0  0
   16.5053   19.1520   10.0740 C   0  0  0  0  0  0  0  0  0  0  0  0
   17.4959   19.9824    9.4406 C   0  0  0  0  0  0  0  0  0  0  0  0
   17.1289   21.1459    8.6848 C   0  0  0  0  0  0  0  0  0  0  0  0
   15.7634   21.5165    8.5632 C   0  0  0  0  0  0  0  0  0  0  0  0
   14.7719   20.7056    9.1782 C   0  0  0  0  0  0  0  0  0  0  0  0
   15.1378   19.5443    9.9209 C   0  0  0  0  0  0  0  0  0  0  0  0
   15.3139   22.7187    7.7050 C   0  0  0  0  0  0  0  0  0  0  0  0
   14.5876   22.2240    6.5007 N   0  0  0  0  0  0  0  0  0  0  0  0
   15.4600   21.4843    5.6437 N   0  0  0  0  0  0  0  0  0  0  0  0
   15.1076   20.1704    5.3043 C   0  0  0  0  0  0  0  0  0  0  0  0
   16.1116   19.3563    4.4361 C   0  0  1  0  0  0  0  0  0  0  0  0
   16.8722   18.5642    5.4279 N   0  0  0  0  0  0  0  0  0  0  0  0
   18.2389   18.6808    5.6696 C   0  0  0  0  0  0  0  0  0  0  0  0
   18.5745   17.8089    6.6918 O   0  0  0  0  0  0  0  0  0  0  0  0
   19.9614   17.7521    7.0891 C   0  0  0  0  0  0  0  0  0  0  0  0
   18.9910   19.3955    5.0793 O   0  0  0  0  0  0  0  0  0  0  0  0
   15.4351   18.4068    3.3226 C   0  0  0  0  0  0  0  0  0  0  0  0
   14.5149   17.2879    3.8681 C   0  0  0  0  0  0  0  0  0  0  0  0
   14.6233   19.2422    2.3034 C   0  0  0  0  0  0  0  0  0  0  0  0
   16.5456   17.6823    2.5222 C   0  0  0  0  0  0  0  0  0  0  0  0
   14.1065   19.6417    5.7670 O   0  0  0  0  0  0  0  0  0  0  0  0
   16.2044   16.6503   10.7801 C   0  0  0  0  0  0  0  0  0  0  0  0
   16.6221   15.5618   11.5801 C   0  0  0  0  0  0  0  0  0  0  0  0
   17.6560   15.6672   12.4715 N   0  0  0  0  0  0  0  0  0  0  0  0
   18.3108   16.8668   12.5939 C   0  0  0  0  0  0  0  0  0  0  0  0
   17.9664   17.9972   11.8362 C   0  0  0  0  0  0  0  0  0  0  0  0
   11.3461   25.5298    3.2210 H   0  0  0  0  0  0  0  0  0  0  0  0
   10.7551   26.6748    5.1510 H   0  0  0  0  0  0  0  0  0  0  0  0
   12.1390   26.0225    6.0634 H   0  0  0  0  0  0  0  0  0  0  0  0
    9.3249   23.9444    7.5369 H   0  0  0  0  0  0  0  0  0  0  0  0
    6.7551   27.0010    7.4789 H   0  0  0  0  0  0  0  0  0  0  0  0
    6.7558   25.4382    8.3569 H   0  0  0  0  0  0  0  0  0  0  0  0
    7.4322   24.6373    6.2088 H   0  0  0  0  0  0  0  0  0  0  0  0
    8.6286   26.0103    4.7802 H   0  0  0  0  0  0  0  0  0  0  0  0
    7.7156   28.1334    9.9649 H   0  0  0  0  0  0  0  0  0  0  0  0
    9.9021   28.5976   11.0709 H   0  0  0  0  0  0  0  0  0  0  0  0
   12.0031   27.3055   10.3221 H   0  0  0  0  0  0  0  0  0  0  0  0
   11.8694   25.6165    8.5158 H   0  0  0  0  0  0  0  0  0  0  0  0
   13.6223   25.2128    3.1141 H   0  0  0  0  0  0  0  0  0  0  0  0
   13.5890   22.8416    3.6773 H   0  0  0  0  0  0  0  0  0  0  0  0
   12.6646   21.7712    4.7502 H   0  0  0  0  0  0  0  0  0  0  0  0
   13.2201   23.7859    6.5079 H   0  0  0  0  0  0  0  0  0  0  0  0
   14.6073   23.9789    5.4022 H   0  0  0  0  0  0  0  0  0  0  0  0
   10.8531   21.9987    2.9579 H   0  0  0  0  0  0  0  0  0  0  0  0
   11.5832   23.3241    2.0545 H   0  0  0  0  0  0  0  0  0  0  0  0
    8.3427   22.0810    3.5997 H   0  0  0  0  0  0  0  0  0  0  0  0
    6.0698   23.0105    3.0965 H   0  0  0  0  0  0  0  0  0  0  0  0
    5.8345   25.1371    1.7660 H   0  0  0  0  0  0  0  0  0  0  0  0
    7.8854   26.3261    0.9336 H   0  0  0  0  0  0  0  0  0  0  0  0
   10.1583   25.4144    1.4171 H   0  0  0  0  0  0  0  0  0  0  0  0
   18.5642   19.7251    9.5213 H   0  0  0  0  0  0  0  0  0  0  0  0
   17.9118   21.7520    8.1980 H   0  0  0  0  0  0  0  0  0  0  0  0
   13.7053   20.9741    9.0630 H   0  0  0  0  0  0  0  0  0  0  0  0
   14.3395   18.9550   10.3891 H   0  0  0  0  0  0  0  0  0  0  0  0
   16.1816   23.3401    7.4134 H   0  0  0  0  0  0  0  0  0  0  0  0
   14.6625   23.3795    8.3134 H   0  0  0  0  0  0  0  0  0  0  0  0
   16.3074   21.9269    5.3162 H   0  0  0  0  0  0  0  0  0  0  0  0
   16.7691   20.0584    3.9089 H   0  0  0  0  0  0  0  0  0  0  0  0
   16.3445   17.9463    6.0145 H   0  0  0  0  0  0  0  0  0  0  0  0
   20.0786   17.0212    7.9105 H   0  0  0  0  0  0  0  0  0  0  0  0
   20.2998   18.7256    7.4554 H   0  0  0  0  0  0  0  0  0  0  0  0
   20.5898   17.4251    6.2558 H   0  0  0  0  0  0  0  0  0  0  0  0
   14.1056   16.6724    3.0468 H   0  0  0  0  0  0  0  0  0  0  0  0
   13.6626   17.6988    4.4166 H   0  0  0  0  0  0  0  0  0  0  0  0
   15.0651   16.6116    4.5344 H   0  0  0  0  0  0  0  0  0  0  0  0
   15.2400   20.0466    1.8819 H   0  0  0  0  0  0  0  0  0  0  0  0
   13.7424   19.6935    2.7746 H   0  0  0  0  0  0  0  0  0  0  0  0
   14.2718   18.6197    1.4637 H   0  0  0  0  0  0  0  0  0  0  0  0
   17.1558   17.0547    3.1833 H   0  0  0  0  0  0  0  0  0  0  0  0
   17.2024   18.4064    2.0267 H   0  0  0  0  0  0  0  0  0  0  0  0
   16.1160   17.0290    1.7464 H   0  0  0  0  0  0  0  0  0  0  0  0
   15.3758   16.5246   10.0756 H   0  0  0  0  0  0  0  0  0  0  0  0
   16.1158   14.5757   11.5088 H   0  0  0  0  0  0  0  0  0  0  0  0
   19.1399   16.9314   13.3185 H   0  0  0  0  0  0  0  0  0  0  0  0
   18.5140   18.9352   11.9730 H   0  0  0  0  0  0  0  0  0  0  0  0
  1  2  2  0  0  0  0
  1  3  1  0  0  0  0
  1  6  1  0  0  0  0
  3  4  1  0  0  0  0
  3 18  1  1  0  0  0
  3 20  1  0  0  0  0
  4  5  1  0  0  0  0
  4 17  1  0  0  0  0
  4 54  1  6  0  0  0
  5  6  1  0  0  0  0
  5 55  1  0  0  0  0
  5 56  1  0  0  0  0
  6  7  1  0  0  0  0
  7  8  1  0  0  0  0
  7 11  1  0  0  0  0
  7 57  1  1  0  0  0
  8  9  2  0  0  0  0
  8 16  1  0  0  0  0
  9 10  1  0  0  0  0
  9 13  1  0  0  0  0
 10 11  1  0  0  0  0
 10 58  1  0  0  0  0
 10 59  1  0  0  0  0
 11 12  1  0  0  0  0
 11 60  1  6  0  0  0
 12 61  1  0  0  0  0
 13 14  2  0  0  0  0
 13 62  1  0  0  0  0
 14 15  1  0  0  0  0
 14 63  1  0  0  0  0
 15 16  2  0  0  0  0
 15 64  1  0  0  0  0
 16 65  1  0  0  0  0
 17 66  1  0  0  0  0
 18 19  1  0  0  0  0
 18 67  1  0  0  0  0
 18 68  1  0  0  0  0
 19 35  1  0  0  0  0
 19 69  1  0  0  0  0
 19 70  1  0  0  0  0
 20 21  1  0  0  0  0
 20 71  1  0  0  0  0
 20 72  1  0  0  0  0
 21 22  2  0  0  0  0
 21 26  1  0  0  0  0
 22 23  1  0  0  0  0
 22 73  1  0  0  0  0
 23 24  2  0  0  0  0
 23 74  1  0  0  0  0
 24 25  1  0  0  0  0
 24 75  1  0  0  0  0
 25 26  2  0  0  0  0
 25 76  1  0  0  0  0
 26 77  1  0  0  0  0
 27 28  1  0  0  0  0
 27 49  2  0  0  0  0
 27 53  1  0  0  0  0
 28 29  2  0  0  0  0
 28 33  1  0  0  0  0
 29 30  1  0  0  0  0
 29 78  1  0  0  0  0
 30 31  2  0  0  0  0
 30 79  1  0  0  0  0
 31 32  1  0  0  0  0
 31 34  1  0  0  0  0
 32 33  2  0  0  0  0
 32 80  1  0  0  0  0
 33 81  1  0  0  0  0
 34 35  1  0  0  0  0
 34 82  1  0  0  0  0
 34 83  1  0  0  0  0
 35 36  1  0  0  0  0
 36 37  1  0  0  0  0
 36 84  1  0  0  0  0
 37 38  1  0  0  0  0
 37 48  2  0  0  0  0
 38 39  1  0  0  0  0
 38 44  1  0  0  0  0
 38 85  1  6  0  0  0
 39 40  1  0  0  0  0
 39 86  1  0  0  0  0
 40 41  1  0  0  0  0
 40 43  2  0  0  0  0
 41 42  1  0  0  0  0
 42 87  1  0  0  0  0
 42 88  1  0  0  0  0
 42 89  1  0  0  0  0
 44 45  1  0  0  0  0
 44 46  1  0  0  0  0
 44 47  1  0  0  0  0
 45 90  1  0  0  0  0
 45 91  1  0  0  0  0
 45 92  1  0  0  0  0
 46 93  1  0  0  0  0
 46 94  1  0  0  0  0
 46 95  1  0  0  0  0
 47 96  1  0  0  0  0
 47 97  1  0  0  0  0
 47 98  1  0  0  0  0
 49 50  1  0  0  0  0
 49 99  1  0  0  0  0
 50 51  2  0  0  0  0
 50100  1  0  0  0  0
 51 52  1  0  0  0  0
 52 53  2  0  0  0  0
 52101  1  0  0  0  0
 53102  1  0  0  0  0
M  END
$$$$
