V13
 OpenBabel04111919173D

 27 27  0  0  0  0  0  0  0  0999 V2000
  -38.7496  -33.1733   20.3955 O   0  0  0  0  0  0  0  0  0  0  0  0
  -39.4207  -33.9089   21.4514 S   0  0  0  0  0  0  0  0  0  0  0  0
  -40.1200  -33.1644   22.4767 O   0  0  0  0  0  0  0  0  0  0  0  0
  -40.6493  -34.9348   20.6386 C   0  0  0  0  0  0  0  0  0  0  0  0
  -40.0444  -36.2265   20.1686 C   0  0  0  0  0  0  0  0  0  0  0  0
  -40.0447  -37.1310   21.2674 O   0  0  0  0  0  0  0  0  0  0  0  0
  -38.1511  -34.8909   22.2693 C   0  0  0  0  0  0  0  0  0  0  0  0
  -36.9675  -35.2143   21.6245 C   0  0  0  0  0  0  0  0  0  0  0  0
  -36.7991  -34.9474   20.3102 F   0  0  0  0  0  0  0  0  0  0  0  0
  -35.8887  -35.8503   22.3044 C   0  0  0  0  0  0  0  0  0  0  0  0
  -34.7857  -36.1373   21.6192 F   0  0  0  0  0  0  0  0  0  0  0  0
  -35.9848  -36.1440   23.6654 C   0  0  0  0  0  0  0  0  0  0  0  0
  -34.5909  -36.8807   24.4121 S   0  0  0  0  0  0  0  0  0  0  0  0
  -33.5473  -35.8932   24.3548 O   0  0  0  0  0  0  0  0  0  0  0  0
  -34.8305  -37.1727   26.0271 N   0  0  0  0  0  0  0  0  0  0  0  0
  -34.4141  -38.2051   23.8284 O   0  0  0  0  0  0  0  0  0  0  0  0
  -37.1575  -35.8227   24.3198 C   0  0  0  0  0  0  0  0  0  0  0  0
  -37.3050  -36.0921   25.6229 F   0  0  0  0  0  0  0  0  0  0  0  0
  -38.2308  -35.1821   23.6342 C   0  0  0  0  0  0  0  0  0  0  0  0
  -39.3258  -34.8726   24.3391 F   0  0  0  0  0  0  0  0  0  0  0  0
  -41.0457  -34.3649   19.7878 H   0  0  0  0  0  0  0  0  0  0  0  0
  -41.4909  -35.1106   21.3201 H   0  0  0  0  0  0  0  0  0  0  0  0
  -39.0206  -36.0794   19.8192 H   0  0  0  0  0  0  0  0  0  0  0  0
  -40.6112  -36.6804   19.3482 H   0  0  0  0  0  0  0  0  0  0  0  0
  -40.9770  -37.3079   21.5015 H   0  0  0  0  0  0  0  0  0  0  0  0
  -34.0049  -37.4930   26.5379 H   0  0  0  0  0  0  0  0  0  0  0  0
  -35.6173  -36.7756   26.5448 H   0  0  0  0  0  0  0  0  0  0  0  0
  1  2  2  0  0  0  0
  2  3  2  0  0  0  0
  2  4  1  0  0  0  0
  2  7  1  0  0  0  0
  4  5  1  0  0  0  0
  4 21  1  0  0  0  0
  4 22  1  0  0  0  0
  5  6  1  0  0  0  0
  5 23  1  0  0  0  0
  5 24  1  0  0  0  0
  6 25  1  0  0  0  0
  7  8  2  0  0  0  0
  7 19  1  0  0  0  0
  8  9  1  0  0  0  0
  8 10  1  0  0  0  0
 10 11  1  0  0  0  0
 10 12  2  0  0  0  0
 12 13  1  0  0  0  0
 12 17  1  0  0  0  0
 13 14  2  0  0  0  0
 13 15  1  0  0  0  0
 13 16  2  0  0  0  0
 15 26  1  0  0  0  0
 15 27  1  0  0  0  0
 17 18  1  0  0  0  0
 17 19  2  0  0  0  0
 19 20  1  0  0  0  0
M  END
$$$$
