V50
 OpenBabel04111919163D

 32 33  0  0  0  0  0  0  0  0999 V2000
   -2.8193    1.5300   16.5413 F   0  0  0  0  0  0  0  0  0  0  0  0
   -3.5711    2.4644   15.9292 C   0  0  0  0  0  0  0  0  0  0  0  0
   -4.9654    2.3102   15.9505 C   0  0  0  0  0  0  0  0  0  0  0  0
   -5.8471    0.9605   16.7769 S   0  0  0  0  0  0  0  0  0  0  0  0
   -5.2717    0.7558   18.1361 O   0  0  0  0  0  0  0  0  0  0  0  0
   -5.3126   -0.3675   15.9773 N   0  0  0  0  0  0  0  0  0  0  0  0
   -7.2420    0.8844   16.5214 O   0  0  0  0  0  0  0  0  0  0  0  0
   -5.6886    3.2816   15.2793 C   0  0  0  0  0  0  0  0  0  0  0  0
   -7.0208    3.1932   15.2975 F   0  0  0  0  0  0  0  0  0  0  0  0
   -5.0399    4.3891   14.6199 C   0  0  0  0  0  0  0  0  0  0  0  0
   -5.8314    5.2656   13.9748 F   0  0  0  0  0  0  0  0  0  0  0  0
   -2.9168    3.5690   15.2678 C   0  0  0  0  0  0  0  0  0  0  0  0
   -1.5724    3.6588   15.2304 F   0  0  0  0  0  0  0  0  0  0  0  0
   -3.6344    4.6089   14.6476 C   0  0  0  0  0  0  0  0  0  0  0  0
   -2.6541    5.7888   13.6874 S   0  0  0  0  0  0  0  0  0  0  0  0
   -2.1494    7.5236   13.7897 C   0  0  0  0  0  0  0  0  0  0  0  0
   -2.5264    8.1921   12.6712 N   0  0  0  0  0  0  0  0  0  0  0  0
   -2.1528    9.4856   12.4709 C   0  0  0  0  0  0  0  0  0  0  0  0
   -2.6949   10.1935   11.2669 C   0  0  0  0  0  0  0  0  0  0  0  0
   -1.3479   10.1578   13.3297 C   0  0  0  0  0  0  0  0  0  0  0  0
   -0.8952    9.4255   14.3987 C   0  0  0  0  0  0  0  0  0  0  0  0
   -1.2588    8.0972   14.6454 N   0  0  0  0  0  0  0  0  0  0  0  0
    0.0285   10.1784   15.3267 C   0  0  0  0  0  0  0  0  0  0  0  0
   -5.7245   -1.2391   16.2823 H   0  0  0  0  0  0  0  0  0  0  0  0
   -4.7213   -0.2411   15.1834 H   0  0  0  0  0  0  0  0  0  0  0  0
   -2.3265   11.2280   11.2331 H   0  0  0  0  0  0  0  0  0  0  0  0
   -3.7862   10.2159   11.3146 H   0  0  0  0  0  0  0  0  0  0  0  0
   -2.3751    9.6805   10.3579 H   0  0  0  0  0  0  0  0  0  0  0  0
   -1.0705   11.2192   13.1785 H   0  0  0  0  0  0  0  0  0  0  0  0
    0.3474    9.5426   16.1452 H   0  0  0  0  0  0  0  0  0  0  0  0
   -0.4928   11.0607   15.7268 H   0  0  0  0  0  0  0  0  0  0  0  0
    0.9088   10.5286   14.7675 H   0  0  0  0  0  0  0  0  0  0  0  0
  1  2  1  0  0  0  0
  2  3  2  0  0  0  0
  2 12  1  0  0  0  0
  3  4  1  0  0  0  0
  3  8  1  0  0  0  0
  4  5  2  0  0  0  0
  4  6  1  0  0  0  0
  4  7  2  0  0  0  0
  6 24  1  0  0  0  0
  6 25  1  0  0  0  0
  8  9  1  0  0  0  0
  8 10  2  0  0  0  0
 10 11  1  0  0  0  0
 10 14  1  0  0  0  0
 12 13  1  0  0  0  0
 12 14  2  0  0  0  0
 14 15  1  0  0  0  0
 15 16  1  0  0  0  0
 16 17  2  0  0  0  0
 16 22  1  0  0  0  0
 17 18  1  0  0  0  0
 18 19  1  0  0  0  0
 18 20  2  0  0  0  0
 19 26  1  0  0  0  0
 19 27  1  0  0  0  0
 19 28  1  0  0  0  0
 20 21  1  0  0  0  0
 20 29  1  0  0  0  0
 21 22  2  0  0  0  0
 21 23  1  0  0  0  0
 23 30  1  0  0  0  0
 23 31  1  0  0  0  0
 23 32  1  0  0  0  0
M  END
$$$$
