V90
 OpenBabel04111921103D

 49 50  0  0  0  0  0  0  0  0999 V2000
   -2.8218    3.2386   12.7930 F   0  0  0  0  0  0  0  0  0  0  0  0
   -3.6945    3.3195   13.8193 C   0  0  0  0  0  0  0  0  0  0  0  0
   -4.2080    4.5683   14.1576 C   0  0  0  0  0  0  0  0  0  0  0  0
   -3.8664    6.0286   13.1811 S   0  0  0  0  0  0  0  0  0  0  0  0
   -2.4275    6.7092   14.0857 C   0  0  0  0  0  0  0  0  0  0  0  0
   -1.1740    5.9208   13.7389 C   0  0  0  0  0  0  0  0  0  0  0  0
   -0.5038    6.5021   12.6285 O   0  0  0  0  0  0  0  0  0  0  0  0
   -5.0730    4.6130   15.2397 C   0  0  0  0  0  0  0  0  0  0  0  0
   -5.5787    5.7724   15.6620 F   0  0  0  0  0  0  0  0  0  0  0  0
   -4.0470    2.1122   14.4788 C   0  0  0  0  0  0  0  0  0  0  0  0
   -4.9050    2.2337   15.5690 C   0  0  0  0  0  0  0  0  0  0  0  0
   -5.4861    0.9042   16.5676 S   0  0  0  0  0  0  0  0  0  0  0  0
   -6.9337    0.8117   16.4068 O   0  0  0  0  0  0  0  0  0  0  0  0
   -4.8979   -0.5257   16.0047 N   0  0  0  0  0  0  0  0  0  0  0  0
   -4.8548    1.0632   17.8865 O   0  0  0  0  0  0  0  0  0  0  0  0
   -5.4016    3.4524   15.9307 C   0  0  0  0  0  0  0  0  0  0  0  0
   -6.2370    3.5684   16.9916 F   0  0  0  0  0  0  0  0  0  0  0  0
   -3.6162    0.8704   14.0183 N   0  0  0  0  0  0  0  0  0  0  0  0
   -3.4847    0.5644   12.5920 C   0  0  0  0  0  0  0  0  0  0  0  0
   -3.4439   -0.9733   12.5175 C   0  0  0  0  0  0  0  0  0  0  0  0
   -2.1552   -1.3843   11.8292 C   0  0  0  0  0  0  0  0  0  0  0  0
   -2.3079   -1.3659   10.3060 C   0  0  0  0  0  0  0  0  0  0  0  0
   -2.3905    0.0375    9.7001 C   0  0  0  0  0  0  0  0  0  0  0  0
   -3.8338    0.4600    9.4083 C   0  0  0  0  0  0  0  0  0  0  0  0
   -4.2334    1.6010   10.3324 C   0  0  0  0  0  0  0  0  0  0  0  0
   -4.6368    1.1356   11.7383 C   0  0  0  0  0  0  0  0  0  0  0  0
   -2.6176    6.6538   15.1642 H   0  0  0  0  0  0  0  0  0  0  0  0
   -2.3043    7.7620   13.8075 H   0  0  0  0  0  0  0  0  0  0  0  0
   -1.4046    4.8864   13.4919 H   0  0  0  0  0  0  0  0  0  0  0  0
   -0.4865    5.9266   14.5883 H   0  0  0  0  0  0  0  0  0  0  0  0
    0.2693    5.9407   12.4458 H   0  0  0  0  0  0  0  0  0  0  0  0
   -5.1544   -1.3970   16.4611 H   0  0  0  0  0  0  0  0  0  0  0  0
   -4.4293   -0.5513   15.0859 H   0  0  0  0  0  0  0  0  0  0  0  0
   -3.0041    0.3419   14.6432 H   0  0  0  0  0  0  0  0  0  0  0  0
   -2.5387    0.9855   12.2341 H   0  0  0  0  0  0  0  0  0  0  0  0
   -4.3164   -1.3957   12.0067 H   0  0  0  0  0  0  0  0  0  0  0  0
   -3.4579   -1.4201   13.5226 H   0  0  0  0  0  0  0  0  0  0  0  0
   -1.8706   -2.3863   12.1638 H   0  0  0  0  0  0  0  0  0  0  0  0
   -1.3427   -0.7157   12.1434 H   0  0  0  0  0  0  0  0  0  0  0  0
   -3.1991   -1.9401   10.0291 H   0  0  0  0  0  0  0  0  0  0  0  0
   -1.4494   -1.8796    9.8748 H   0  0  0  0  0  0  0  0  0  0  0  0
   -1.8084    0.0722    8.7717 H   0  0  0  0  0  0  0  0  0  0  0  0
   -1.8981    0.7653   10.3501 H   0  0  0  0  0  0  0  0  0  0  0  0
   -4.5372   -0.3736    9.5138 H   0  0  0  0  0  0  0  0  0  0  0  0
   -3.9155    0.7939    8.3639 H   0  0  0  0  0  0  0  0  0  0  0  0
   -5.0779    2.1428    9.8922 H   0  0  0  0  0  0  0  0  0  0  0  0
   -3.4070    2.3204   10.3962 H   0  0  0  0  0  0  0  0  0  0  0  0
   -5.0664    2.0122   12.2254 H   0  0  0  0  0  0  0  0  0  0  0  0
   -5.4551    0.4162   11.6732 H   0  0  0  0  0  0  0  0  0  0  0  0
  1  2  1  0  0  0  0
  2  3  2  0  0  0  0
  2 10  1  0  0  0  0
  3  4  1  0  0  0  0
  3  8  1  0  0  0  0
  4  5  1  0  0  0  0
  5  6  1  0  0  0  0
  5 27  1  0  0  0  0
  5 28  1  0  0  0  0
  6  7  1  0  0  0  0
  6 29  1  0  0  0  0
  6 30  1  0  0  0  0
  7 31  1  0  0  0  0
  8  9  1  0  0  0  0
  8 16  2  0  0  0  0
 10 11  2  0  0  0  0
 10 18  1  0  0  0  0
 11 12  1  0  0  0  0
 11 16  1  0  0  0  0
 12 13  2  0  0  0  0
 12 14  1  0  0  0  0
 12 15  2  0  0  0  0
 14 32  1  0  0  0  0
 14 33  1  0  0  0  0
 16 17  1  0  0  0  0
 18 19  1  0  0  0  0
 18 34  1  0  0  0  0
 19 20  1  0  0  0  0
 19 26  1  0  0  0  0
 19 35  1  0  0  0  0
 20 21  1  0  0  0  0
 20 36  1  0  0  0  0
 20 37  1  0  0  0  0
 21 22  1  0  0  0  0
 21 38  1  0  0  0  0
 21 39  1  0  0  0  0
 22 23  1  0  0  0  0
 22 40  1  0  0  0  0
 22 41  1  0  0  0  0
 23 24  1  0  0  0  0
 23 42  1  0  0  0  0
 23 43  1  0  0  0  0
 24 25  1  0  0  0  0
 24 44  1  0  0  0  0
 24 45  1  0  0  0  0
 25 26  1  0  0  0  0
 25 46  1  0  0  0  0
 25 47  1  0  0  0  0
 26 48  1  0  0  0  0
 26 49  1  0  0  0  0
M  END
$$$$
