VHS
 OpenBabel04111918123D

 53 56  0  0  1  0  0  0  0  0999 V2000
  -12.8024  -13.9594   10.5399 Cl  0  0  0  0  0  0  0  0  0  0  0  0
  -14.3130  -13.1123   10.5502 C   0  0  0  0  0  0  0  0  0  0  0  0
  -14.6463  -12.4089    9.3918 C   0  0  0  0  0  0  0  0  0  0  0  0
  -13.8209  -12.4006    8.3338 F   0  0  0  0  0  0  0  0  0  0  0  0
  -15.8382  -11.7053    9.2902 C   0  0  0  0  0  0  0  0  0  0  0  0
  -16.7189  -11.6909   10.3647 C   0  0  0  0  0  0  0  0  0  0  0  0
  -16.3986  -12.3775   11.5378 C   0  0  0  0  0  0  0  0  0  0  0  0
  -17.5845  -12.2987   12.7996 Cl  0  0  0  0  0  0  0  0  0  0  0  0
  -15.1980  -13.1178   11.6531 C   0  0  0  0  0  0  0  0  0  0  0  0
  -14.9138  -13.9110   12.9212 C   0  0  2  0  0  0  0  0  0  0  0  0
  -13.8571  -13.1932   13.7560 C   0  0  0  0  0  0  0  0  0  0  0  0
  -14.4291  -15.2326   12.6834 O   0  0  0  0  0  0  0  0  0  0  0  0
  -15.2498  -16.1549   12.0922 C   0  0  0  0  0  0  0  0  0  0  0  0
  -16.5368  -15.9266   11.6443 C   0  0  0  0  0  0  0  0  0  0  0  0
  -14.6996  -17.4291   11.9103 C   0  0  0  0  0  0  0  0  0  0  0  0
  -13.4409  -17.6918   12.4067 N   0  0  0  0  0  0  0  0  0  0  0  0
  -15.3726  -18.4398   11.3276 N   0  0  0  0  0  0  0  0  0  0  0  0
  -16.6221  -18.1845   10.9004 C   0  0  0  0  0  0  0  0  0  0  0  0
  -17.2498  -16.9433   11.0192 C   0  0  0  0  0  0  0  0  0  0  0  0
  -18.5925  -16.7211   10.5726 C   0  0  0  0  0  0  0  0  0  0  0  0
  -19.0964  -15.5236   10.0938 C   0  0  0  0  0  0  0  0  0  0  0  0
  -19.6972  -17.6009   10.5611 C   0  0  0  0  0  0  0  0  0  0  0  0
  -20.8054  -17.0067   10.1145 N   0  0  0  0  0  0  0  0  0  0  0  0
  -20.4116  -15.7519    9.8417 N   0  3  0  0  0  0  0  0  0  0  0  0
  -21.4041  -14.8435    9.2991 C   0  0  0  0  0  0  0  0  0  0  0  0
  -21.8534  -15.3158    7.9126 C   0  0  0  0  0  0  0  0  0  0  0  0
  -23.0101  -14.4514    7.4625 C   0  0  0  0  0  0  0  0  0  0  0  0
  -22.5065  -13.0497    7.3397 N   0  3  0  0  0  0  0  0  0  0  0  0
  -22.0446  -12.4860    8.6430 C   0  0  0  0  0  0  0  0  0  0  0  0
  -20.9567  -13.3739    9.2271 C   0  0  0  0  0  0  0  0  0  0  0  0
  -16.0612  -11.1661    8.3763 H   0  0  0  0  0  0  0  0  0  0  0  0
  -17.6514  -11.1385   10.2902 H   0  0  0  0  0  0  0  0  0  0  0  0
  -15.8017  -14.0144   13.5531 H   0  0  0  0  0  0  0  0  0  0  0  0
  -13.6430  -13.7673   14.6630 H   0  0  0  0  0  0  0  0  0  0  0  0
  -14.1854  -12.1882   14.0337 H   0  0  0  0  0  0  0  0  0  0  0  0
  -12.9067  -13.1051   13.2201 H   0  0  0  0  0  0  0  0  0  0  0  0
  -17.0275  -14.9772   11.7803 H   0  0  0  0  0  0  0  0  0  0  0  0
  -13.0251  -18.5870   12.2139 H   0  0  0  0  0  0  0  0  0  0  0  0
  -12.8944  -16.9060   12.7365 H   0  0  0  0  0  0  0  0  0  0  0  0
  -17.1360  -19.0249   10.4398 H   0  0  0  0  0  0  0  0  0  0  0  0
  -18.6187  -14.5715    9.9327 H   0  0  0  0  0  0  0  0  0  0  0  0
  -19.7227  -18.6286   10.8791 H   0  0  0  0  0  0  0  0  0  0  0  0
  -22.2577  -14.9072    9.9902 H   0  0  0  0  0  0  0  0  0  0  0  0
  -22.1665  -16.3657    7.9299 H   0  0  0  0  0  0  0  0  0  0  0  0
  -21.0158  -15.2471    7.2031 H   0  0  0  0  0  0  0  0  0  0  0  0
  -23.8203  -14.4390    8.2015 H   0  0  0  0  0  0  0  0  0  0  0  0
  -23.4037  -14.7525    6.4914 H   0  0  0  0  0  0  0  0  0  0  0  0
  -21.7497  -13.0097    6.6377 H   0  0  0  0  0  0  0  0  0  0  0  0
  -22.9205  -12.4306    9.2976 H   0  0  0  0  0  0  0  0  0  0  0  0
  -21.6739  -11.4759    8.4466 H   0  0  0  0  0  0  0  0  0  0  0  0
  -20.0593  -13.2912    8.6003 H   0  0  0  0  0  0  0  0  0  0  0  0
  -20.6882  -13.0116   10.2255 H   0  0  0  0  0  0  0  0  0  0  0  0
  -23.2568  -12.4563    6.9549 H   0  0  0  0  0  0  0  0  0  0  0  0
  1  2  1  0  0  0  0
  2  3  2  0  0  0  0
  2  9  1  0  0  0  0
  3  4  1  0  0  0  0
  3  5  1  0  0  0  0
  5  6  2  0  0  0  0
  5 31  1  0  0  0  0
  6  7  1  0  0  0  0
  6 32  1  0  0  0  0
  7  8  1  0  0  0  0
  7  9  2  0  0  0  0
  9 10  1  0  0  0  0
 10 11  1  0  0  0  0
 10 12  1  0  0  0  0
 10 33  1  1  0  0  0
 11 34  1  0  0  0  0
 11 35  1  0  0  0  0
 11 36  1  0  0  0  0
 12 13  1  0  0  0  0
 13 14  2  0  0  0  0
 13 15  1  0  0  0  0
 14 19  1  0  0  0  0
 14 37  1  0  0  0  0
 15 16  1  0  0  0  0
 15 17  2  0  0  0  0
 16 38  1  0  0  0  0
 16 39  1  0  0  0  0
 17 18  1  0  0  0  0
 18 19  2  0  0  0  0
 18 40  1  0  0  0  0
 19 20  1  0  0  0  0
 20 21  1  0  0  0  0
 20 22  2  0  0  0  0
 21 24  2  0  0  0  0
 21 41  1  0  0  0  0
 22 23  1  0  0  0  0
 22 42  1  0  0  0  0
 23 24  1  0  0  0  0
 24 25  1  0  0  0  0
 25 26  1  0  0  0  0
 25 30  1  0  0  0  0
 25 43  1  0  0  0  0
 26 27  1  0  0  0  0
 26 44  1  0  0  0  0
 26 45  1  0  0  0  0
 27 28  1  0  0  0  0
 27 46  1  0  0  0  0
 27 47  1  0  0  0  0
 28 29  1  0  0  0  0
 28 48  1  0  0  0  0
 28 53  1  0  0  0  0
 29 30  1  0  0  0  0
 29 49  1  0  0  0  0
 29 50  1  0  0  0  0
 30 51  1  0  0  0  0
 30 52  1  0  0  0  0
M  CHG  2  24   1  28   1
M  END
$$$$
