W2D
 OpenBabel04111918263D

 43 47  0  0  0  0  0  0  0  0999 V2000
    3.1888   12.8552   24.3727 C   0  0  0  0  0  0  0  0  0  0  0  0
    4.0411   13.8619   24.7685 C   0  0  0  0  0  0  0  0  0  0  0  0
    3.6581   15.0949   25.1988 O   0  0  0  0  0  0  0  0  0  0  0  0
    4.9484   15.7166   25.3921 C   0  0  0  0  0  0  0  0  0  0  0  0
    6.0588   14.8186   25.1731 O   0  0  0  0  0  0  0  0  0  0  0  0
    5.4037   13.7010   24.7576 C   0  0  0  0  0  0  0  0  0  0  0  0
    5.9931   12.5227   24.3727 C   0  0  0  0  0  0  0  0  0  0  0  0
    5.1549   11.4748   23.9642 C   0  0  0  0  0  0  0  0  0  0  0  0
    3.7544   11.6274   23.9581 C   0  0  0  0  0  0  0  0  0  0  0  0
    2.8717   10.4905   23.5301 C   0  0  0  0  0  0  0  0  0  0  0  0
    1.9941   10.0191   24.6480 C   0  0  0  0  0  0  0  0  0  0  0  0
    2.4720    9.2418   25.6474 N   0  0  0  0  0  0  0  0  0  0  0  0
    1.6988    8.8831   26.6881 C   0  0  0  0  0  0  0  0  0  0  0  0
    2.2350    8.0829   27.6769 C   0  0  0  0  0  0  0  0  0  0  0  0
    1.4499    7.6485   28.7651 C   0  0  0  0  0  0  0  0  0  0  0  0
    2.1474    6.5391   29.9755 S   0  0  0  0  0  0  0  0  0  0  0  0
    3.5619    6.4780   29.7335 O   0  0  0  0  0  0  0  0  0  0  0  0
    1.2975    5.3799   30.0080 O   0  0  0  0  0  0  0  0  0  0  0  0
    1.9568    7.3590   31.4160 N   0  0  0  0  0  0  0  0  0  0  0  0
    0.1069    8.0156   28.8617 C   0  0  0  0  0  0  0  0  0  0  0  0
   -0.4400    8.8369   27.8856 C   0  0  0  0  0  0  0  0  0  0  0  0
    0.3454    9.2683   26.8094 C   0  0  0  0  0  0  0  0  0  0  0  0
   -0.1416   10.0794   25.7939 C   0  0  0  0  0  0  0  0  0  0  0  0
   -1.3469   10.6222   25.6099 N   0  3  0  0  0  0  0  0  0  0  0  0
    0.6066   10.4623   24.7565 N   0  3  0  0  0  0  0  0  0  0  0  0
   -0.0802   11.2735   23.9107 N   0  0  0  0  0  0  0  0  0  0  0  0
   -1.2438   11.3337   24.4577 C   0  0  0  0  0  0  0  0  0  0  0  0
   -2.2638   12.0352   23.9287 N   0  0  0  0  0  0  0  0  0  0  0  0
    2.1195   13.0310   24.3875 H   0  0  0  0  0  0  0  0  0  0  0  0
    5.0029   16.0980   26.4181 H   0  0  0  0  0  0  0  0  0  0  0  0
    5.0340   16.5592   24.6952 H   0  0  0  0  0  0  0  0  0  0  0  0
    7.0708   12.4028   24.3655 H   0  0  0  0  0  0  0  0  0  0  0  0
    5.6031   10.5329   23.6567 H   0  0  0  0  0  0  0  0  0  0  0  0
    3.4612    9.6473   23.1602 H   0  0  0  0  0  0  0  0  0  0  0  0
    2.2547   10.8246   22.6867 H   0  0  0  0  0  0  0  0  0  0  0  0
    3.2769    7.7714   27.6089 H   0  0  0  0  0  0  0  0  0  0  0  0
    2.0203    6.7453   32.2336 H   0  0  0  0  0  0  0  0  0  0  0  0
    1.2921    8.1254   31.4803 H   0  0  0  0  0  0  0  0  0  0  0  0
   -0.5070    7.6376   29.6801 H   0  0  0  0  0  0  0  0  0  0  0  0
   -1.4940    9.1176   27.9703 H   0  0  0  0  0  0  0  0  0  0  0  0
   -3.2126   12.0844   24.2787 H   0  0  0  0  0  0  0  0  0  0  0  0
   -2.1532   12.5446   23.0534 H   0  0  0  0  0  0  0  0  0  0  0  0
   -2.1643   10.5340   26.1879 H   0  0  0  0  0  0  0  0  0  0  0  0
  1  2  2  0  0  0  0
  1  9  1  0  0  0  0
  1 29  1  0  0  0  0
  2  3  1  0  0  0  0
  2  6  1  0  0  0  0
  3  4  1  0  0  0  0
  4  5  1  0  0  0  0
  4 30  1  0  0  0  0
  4 31  1  0  0  0  0
  5  6  1  0  0  0  0
  6  7  2  0  0  0  0
  7  8  1  0  0  0  0
  7 32  1  0  0  0  0
  8  9  2  0  0  0  0
  8 33  1  0  0  0  0
  9 10  1  0  0  0  0
 10 11  1  0  0  0  0
 10 34  1  0  0  0  0
 10 35  1  0  0  0  0
 11 12  2  0  0  0  0
 11 25  1  0  0  0  0
 12 13  1  0  0  0  0
 13 14  2  0  0  0  0
 13 22  1  0  0  0  0
 14 15  1  0  0  0  0
 14 36  1  0  0  0  0
 15 16  1  0  0  0  0
 15 20  2  0  0  0  0
 16 17  2  0  0  0  0
 16 18  2  0  0  0  0
 16 19  1  0  0  0  0
 19 37  1  0  0  0  0
 19 38  1  0  0  0  0
 20 21  1  0  0  0  0
 20 39  1  0  0  0  0
 21 22  2  0  0  0  0
 21 40  1  0  0  0  0
 22 23  1  0  0  0  0
 23 24  1  0  0  0  0
 23 25  2  0  0  0  0
 24 27  2  0  0  0  0
 24 43  1  0  0  0  0
 25 26  1  0  0  0  0
 26 27  1  0  0  0  0
 27 28  1  0  0  0  0
 28 41  1  0  0  0  0
 28 42  1  0  0  0  0
M  CHG  2  24   1  25   1
M  END
$$$$
