WJ2
 OpenBabel04111919133D

 20 20  0  0  1  0  0  0  0  0999 V2000
   -7.9735  -30.1245   15.0604 Cl  0  0  0  0  0  0  0  0  0  0  0  0
   -8.7823  -31.6271   14.4696 C   0  0  1  0  0  0  0  0  0  0  0  0
   -8.1324  -32.0304   13.1311 C   0  0  0  0  0  0  0  0  0  0  0  0
   -7.1354  -32.8085   13.1928 O   0  0  0  0  0  0  0  0  0  0  0  0
   -8.7011  -31.5651   12.1054 O   0  0  0  0  0  0  0  0  0  0  0  0
   -8.6867  -32.7621   15.4925 C   0  0  0  0  0  0  0  0  0  0  0  0
   -9.1616  -32.4237   16.8930 C   0  0  0  0  0  0  0  0  0  0  0  0
   -8.3486  -32.7346   17.9930 C   0  0  0  0  0  0  0  0  0  0  0  0
   -8.7515  -32.4110   19.2869 C   0  0  0  0  0  0  0  0  0  0  0  0
   -9.9756  -31.7785   19.4950 C   0  0  0  0  0  0  0  0  0  0  0  0
  -10.7958  -31.4733   18.4127 C   0  0  0  0  0  0  0  0  0  0  0  0
  -10.3959  -31.8011   17.1170 C   0  0  0  0  0  0  0  0  0  0  0  0
   -9.8307  -31.3677   14.2894 H   0  0  0  0  0  0  0  0  0  0  0  0
   -7.6553  -33.1323   15.5563 H   0  0  0  0  0  0  0  0  0  0  0  0
   -9.2854  -33.6142   15.1425 H   0  0  0  0  0  0  0  0  0  0  0  0
   -7.3834  -33.2114   17.8360 H   0  0  0  0  0  0  0  0  0  0  0  0
   -8.1040  -32.6426   20.1268 H   0  0  0  0  0  0  0  0  0  0  0  0
  -10.2843  -31.5148   20.5021 H   0  0  0  0  0  0  0  0  0  0  0  0
  -11.7443  -30.9678   18.5686 H   0  0  0  0  0  0  0  0  0  0  0  0
  -11.0405  -31.5447   16.2801 H   0  0  0  0  0  0  0  0  0  0  0  0
  1  2  1  0  0  0  0
  2  3  1  0  0  0  0
  2  6  1  0  0  0  0
  2 13  1  6  0  0  0
  3  4  2  0  0  0  0
  3  5  1  0  0  0  0
  6  7  1  0  0  0  0
  6 14  1  0  0  0  0
  6 15  1  0  0  0  0
  7  8  2  0  0  0  0
  7 12  1  0  0  0  0
  8  9  1  0  0  0  0
  8 16  1  0  0  0  0
  9 10  2  0  0  0  0
  9 17  1  0  0  0  0
 10 11  1  0  0  0  0
 10 18  1  0  0  0  0
 11 12  2  0  0  0  0
 11 19  1  0  0  0  0
 12 20  1  0  0  0  0
M  END
$$$$
