X0P
 OpenBabel04111918173D

 67 70  0  0  1  0  0  0  0  0999 V2000
   36.6562  -33.8202   -6.2846 C   0  0  0  0  0  0  0  0  0  0  0  0
   36.8803  -34.9954   -5.5521 C   0  0  0  0  0  0  0  0  0  0  0  0
   36.6577  -32.6005   -5.6436 C   0  0  0  0  0  0  0  0  0  0  0  0
   37.1002  -34.9304   -4.1863 C   0  0  0  0  0  0  0  0  0  0  0  0
   33.9917  -32.4757    0.9404 C   0  0  0  0  0  0  0  0  0  0  0  0
   33.4113  -29.7630   -2.3290 C   0  0  0  0  0  0  0  0  0  0  0  0
   35.1270  -28.7678   -0.9578 C   0  0  0  0  0  0  0  0  0  0  0  0
   33.0688  -32.7531    1.9176 C   0  0  0  0  0  0  0  0  0  0  0  0
   32.5788  -29.8164   -1.2275 C   0  0  0  0  0  0  0  0  0  0  0  0
   34.2847  -28.8266    0.1390 C   0  0  0  0  0  0  0  0  0  0  0  0
   36.8896  -32.5522   -4.2789 C   0  0  0  0  0  0  0  0  0  0  0  0
   33.0916  -34.2575   -0.4590 C   0  0  0  0  0  0  0  0  0  0  0  0
   34.6932  -29.2420   -2.2005 C   0  0  0  0  0  0  0  0  0  0  0  0
   37.1038  -33.7033   -3.5350 C   0  0  0  0  0  0  0  0  0  0  0  0
   33.9931  -33.2077   -0.2617 C   0  0  0  0  0  0  0  0  0  0  0  0
   32.1659  -33.7655    1.7084 C   0  0  0  0  0  0  0  0  0  0  0  0
   32.1584  -34.5237    0.5531 C   0  0  0  0  0  0  0  0  0  0  0  0
   33.0037  -29.3475    0.0077 C   0  0  0  0  0  0  0  0  0  0  0  0
   36.8818  -31.2231   -3.6367 C   0  0  0  0  0  0  0  0  0  0  0  0
   33.0539  -35.0643   -1.7383 C   0  0  0  0  0  0  0  0  0  0  0  0
   36.4379  -35.1277   -8.2825 C   0  0  0  0  0  0  0  0  0  0  0  0
   30.5054  -35.8046    1.5485 C   0  0  0  0  0  0  0  0  0  0  0  0
   30.8865  -29.7177    0.8394 C   0  0  0  0  0  0  0  0  0  0  0  0
   35.6087  -29.1550   -3.3812 C   0  0  0  0  0  0  0  0  0  0  0  0
   37.3402  -33.6526   -2.0761 C   0  0  0  0  0  0  0  0  0  0  0  0
   35.0627  -32.8982   -1.2700 C   0  0  0  0  0  0  0  0  0  0  0  0
   36.6154  -34.2852    0.1570 C   0  0  0  0  0  0  0  0  0  0  0  0
   36.6575  -36.2789   -7.5688 C   0  0  0  0  0  0  0  0  0  0  0  0
   35.8227  -30.4395   -3.9771 N   0  0  0  0  0  0  0  0  0  0  0  0
   36.1725  -33.9246   -1.2164 N   0  3  2  0  0  0  0  0  0  0  0  0
   31.9463  -35.3698   -2.1884 O   0  0  0  0  0  0  0  0  0  0  0  0
   37.7636  -30.9120   -2.8439 O   0  0  0  0  0  0  0  0  0  0  0  0
   36.4369  -33.8877   -7.6455 C   0  0  0  0  0  0  0  0  0  0  0  0
   34.2164  -35.2867   -2.2624 O   0  0  0  0  0  0  0  0  0  0  0  0
   36.8826  -36.2196   -6.1961 C   0  0  0  0  0  0  0  0  0  0  0  0
   31.2687  -35.5453    0.3794 O   0  0  0  0  0  0  0  0  0  0  0  0
   32.2342  -29.3756    1.1366 O   0  0  0  0  0  0  0  0  0  0  0  0
   36.4932  -31.6824   -6.2132 H   0  0  0  0  0  0  0  0  0  0  0  0
   37.2682  -35.8509   -3.6220 H   0  0  0  0  0  0  0  0  0  0  0  0
   34.7144  -31.6865    1.0840 H   0  0  0  0  0  0  0  0  0  0  0  0
   33.0608  -30.1317   -3.2881 H   0  0  0  0  0  0  0  0  0  0  0  0
   36.1261  -28.3513   -0.8611 H   0  0  0  0  0  0  0  0  0  0  0  0
   33.0501  -32.1692    2.8348 H   0  0  0  0  0  0  0  0  0  0  0  0
   31.5870  -30.2414   -1.3694 H   0  0  0  0  0  0  0  0  0  0  0  0
   34.6284  -28.4611    1.0975 H   0  0  0  0  0  0  0  0  0  0  0  0
   31.4525  -33.9517    2.5183 H   0  0  0  0  0  0  0  0  0  0  0  0
   36.2547  -35.1672   -9.3505 H   0  0  0  0  0  0  0  0  0  0  0  0
   29.8084  -36.6146    1.3593 H   0  0  0  0  0  0  0  0  0  0  0  0
   29.9278  -34.9154    1.8097 H   0  0  0  0  0  0  0  0  0  0  0  0
   31.1862  -36.0898    2.3515 H   0  0  0  0  0  0  0  0  0  0  0  0
   30.2936  -29.7364    1.7542 H   0  0  0  0  0  0  0  0  0  0  0  0
   30.8366  -30.7215    0.3944 H   0  0  0  0  0  0  0  0  0  0  0  0
   30.4574  -28.9760    0.1540 H   0  0  0  0  0  0  0  0  0  0  0  0
   36.5744  -28.7497   -3.0624 H   0  0  0  0  0  0  0  0  0  0  0  0
   35.1687  -28.4909   -4.1276 H   0  0  0  0  0  0  0  0  0  0  0  0
   37.7430  -32.6967   -1.7660 H   0  0  0  0  0  0  0  0  0  0  0  0
   38.1015  -34.4017   -1.8318 H   0  0  0  0  0  0  0  0  0  0  0  0
   35.4879  -31.9115   -1.0574 H   0  0  0  0  0  0  0  0  0  0  0  0
   34.6176  -32.8662   -2.2721 H   0  0  0  0  0  0  0  0  0  0  0  0
   37.3960  -35.0431    0.0725 H   0  0  0  0  0  0  0  0  0  0  0  0
   35.7821  -34.6998    0.7223 H   0  0  0  0  0  0  0  0  0  0  0  0
   37.0134  -33.3892    0.6437 H   0  0  0  0  0  0  0  0  0  0  0  0
   36.6527  -37.2408   -8.0640 H   0  0  0  0  0  0  0  0  0  0  0  0
   35.1557  -30.7765   -4.6641 H   0  0  0  0  0  0  0  0  0  0  0  0
   36.2643  -32.9770   -8.2173 H   0  0  0  0  0  0  0  0  0  0  0  0
   37.0554  -37.1357   -5.6319 H   0  0  0  0  0  0  0  0  0  0  0  0
   35.6845  -34.7616   -1.6182 H   0  0  0  0  0  0  0  0  0  0  0  0
  1  2  2  0  0  0  0
  1  3  1  0  0  0  0
  1 33  1  0  0  0  0
  2  4  1  0  0  0  0
  2 35  1  0  0  0  0
  3 11  2  0  0  0  0
  3 38  1  0  0  0  0
  4 14  2  0  0  0  0
  4 39  1  0  0  0  0
  5  8  2  0  0  0  0
  5 15  1  0  0  0  0
  5 40  1  0  0  0  0
  6  9  2  0  0  0  0
  6 13  1  0  0  0  0
  6 41  1  0  0  0  0
  7 10  1  0  0  0  0
  7 13  2  0  0  0  0
  7 42  1  0  0  0  0
  8 16  1  0  0  0  0
  8 43  1  0  0  0  0
  9 18  1  0  0  0  0
  9 44  1  0  0  0  0
 10 18  2  0  0  0  0
 10 45  1  0  0  0  0
 11 14  1  0  0  0  0
 11 19  1  0  0  0  0
 12 15  2  0  0  0  0
 12 17  1  0  0  0  0
 12 20  1  0  0  0  0
 13 24  1  0  0  0  0
 14 25  1  0  0  0  0
 15 26  1  0  0  0  0
 16 17  2  0  0  0  0
 16 46  1  0  0  0  0
 17 36  1  0  0  0  0
 18 37  1  0  0  0  0
 19 29  1  0  0  0  0
 19 32  2  0  0  0  0
 20 31  2  0  0  0  0
 20 34  1  0  0  0  0
 21 28  1  0  0  0  0
 21 33  2  0  0  0  0
 21 47  1  0  0  0  0
 22 36  1  0  0  0  0
 22 48  1  0  0  0  0
 22 49  1  0  0  0  0
 22 50  1  0  0  0  0
 23 37  1  0  0  0  0
 23 51  1  0  0  0  0
 23 52  1  0  0  0  0
 23 53  1  0  0  0  0
 24 29  1  0  0  0  0
 24 54  1  0  0  0  0
 24 55  1  0  0  0  0
 25 30  1  0  0  0  0
 25 56  1  0  0  0  0
 25 57  1  0  0  0  0
 26 30  1  0  0  0  0
 26 58  1  0  0  0  0
 26 59  1  0  0  0  0
 27 30  1  0  0  0  0
 27 60  1  0  0  0  0
 27 61  1  0  0  0  0
 27 62  1  0  0  0  0
 28 35  2  0  0  0  0
 28 63  1  0  0  0  0
 29 64  1  0  0  0  0
 30 67  1  6  0  0  0
 33 65  1  0  0  0  0
 35 66  1  0  0  0  0
M  CHG  1  30   1
M  END
$$$$
