X0Q
 OpenBabel04111918083D

 31 33  0  0  0  0  0  0  0  0999 V2000
   -7.3133    1.0750   16.6265 O   0  0  0  0  0  0  0  0  0  0  0  0
   -5.8817    0.9990   16.7607 S   0  0  0  0  0  0  0  0  0  0  0  0
   -5.3020    1.0983   18.0740 O   0  0  0  0  0  0  0  0  0  0  0  0
   -5.3625   -0.4306   16.1051 N   0  0  0  0  0  0  0  0  0  0  0  0
   -5.1368    2.2264   15.6994 C   0  0  0  0  0  0  0  0  0  0  0  0
   -6.1363    3.4341   15.0505 S   0  0  0  0  0  0  0  0  0  0  0  0
   -4.8250    4.2279   14.2824 C   0  0  0  0  0  0  0  0  0  0  0  0
   -3.6313    3.5802   14.5003 C   0  0  0  0  0  0  0  0  0  0  0  0
   -3.8147    2.4584   15.3715 C   0  0  0  0  0  0  0  0  0  0  0  0
   -5.0866    5.4126   13.4477 C   0  0  0  0  0  0  0  0  0  0  0  0
   -4.1692    6.2228   12.8298 C   0  0  0  0  0  0  0  0  0  0  0  0
   -4.9870    7.1248   12.1894 N   0  3  0  0  0  0  0  0  0  0  0  0
   -6.3072    6.8368   12.3617 N   0  0  0  0  0  0  0  0  0  0  0  0
   -6.3761    5.7901   13.1367 N   0  0  0  0  0  0  0  0  0  0  0  0
   -4.5580    8.2122   11.4188 C   0  0  0  0  0  0  0  0  0  0  0  0
   -3.3069    8.2265   10.7989 C   0  0  0  0  0  0  0  0  0  0  0  0
   -2.9010    9.3379   10.0451 C   0  0  0  0  0  0  0  0  0  0  0  0
   -3.7280   10.4309    9.8964 C   0  0  0  0  0  0  0  0  0  0  0  0
   -4.9698   10.3762   10.5358 C   0  0  0  0  0  0  0  0  0  0  0  0
   -5.3927    9.2872   11.2846 C   0  0  0  0  0  0  0  0  0  0  0  0
   -5.8099   11.4959   10.4489 C   0  0  0  0  0  0  0  0  0  0  0  0
   -6.4722   12.4024   10.4251 N   0  0  0  0  0  0  0  0  0  0  0  0
   -5.6101   -0.6562   15.1514 H   0  0  0  0  0  0  0  0  0  0  0  0
   -4.8341   -1.0630   16.6911 H   0  0  0  0  0  0  0  0  0  0  0  0
   -2.6727    3.8566   14.0798 H   0  0  0  0  0  0  0  0  0  0  0  0
   -3.0074    1.8633   15.7641 H   0  0  0  0  0  0  0  0  0  0  0  0
   -3.0720    6.2231   12.8269 H   0  0  0  0  0  0  0  0  0  0  0  0
   -2.6428    7.3713   10.8659 H   0  0  0  0  0  0  0  0  0  0  0  0
   -1.9209    9.3543    9.5705 H   0  0  0  0  0  0  0  0  0  0  0  0
   -3.4273   11.3066    9.3164 H   0  0  0  0  0  0  0  0  0  0  0  0
   -6.3666    9.3140   11.7721 H   0  0  0  0  0  0  0  0  0  0  0  0
  1  2  2  0  0  0  0
  2  3  2  0  0  0  0
  2  4  1  0  0  0  0
  2  5  1  0  0  0  0
  4 23  1  0  0  0  0
  4 24  1  0  0  0  0
  5  6  1  0  0  0  0
  5  9  2  0  0  0  0
  6  7  1  0  0  0  0
  7  8  2  0  0  0  0
  7 10  1  0  0  0  0
  8  9  1  0  0  0  0
  8 25  1  0  0  0  0
  9 26  1  0  0  0  0
 10 11  1  0  0  0  0
 10 14  2  0  0  0  0
 11 12  2  0  0  0  0
 11 27  1  0  0  0  0
 12 13  1  0  0  0  0
 12 15  1  0  0  0  0
 13 14  1  0  0  0  0
 15 16  2  0  0  0  0
 15 20  1  0  0  0  0
 16 17  1  0  0  0  0
 16 28  1  0  0  0  0
 17 18  2  0  0  0  0
 17 29  1  0  0  0  0
 18 19  1  0  0  0  0
 18 30  1  0  0  0  0
 19 20  2  0  0  0  0
 19 21  1  0  0  0  0
 20 31  1  0  0  0  0
 21 22  3  0  0  0  0
M  CHG  1  12   1
M  END
$$$$
