X16
 OpenBabel04111919183D

 51 53  0  0  1  0  0  0  0  0999 V2000
  -11.2823  -34.5829   19.9208 C   0  0  0  0  0  0  0  0  0  0  0  0
  -11.2348  -33.6579   18.7143 C   0  0  2  0  0  0  0  0  0  0  0  0
  -10.8183  -34.4049   17.4352 C   0  0  1  0  0  0  0  0  0  0  0  0
  -11.9804  -35.2744   17.0217 C   0  0  0  0  0  0  0  0  0  0  0  0
  -11.9010  -36.6131   17.3642 N   0  0  0  0  0  0  0  0  0  0  0  0
  -10.3117  -32.6060   18.9760 O   0  0  0  0  0  0  0  0  0  0  0  0
  -10.5856  -33.4113   16.3288 N   0  3  0  0  0  0  0  0  0  0  0  0
  -12.9096  -34.7618   16.3964 O   0  0  0  0  0  0  0  0  0  0  0  0
  -13.0168  -37.7320   16.8706 S   0  0  0  0  0  0  0  0  0  0  0  0
  -12.5060  -38.9876   17.3416 O   0  0  0  0  0  0  0  0  0  0  0  0
  -13.2724  -37.4775   15.4667 O   0  0  0  0  0  0  0  0  0  0  0  0
  -14.4503  -37.3448   17.8176 C   0  0  0  0  0  0  0  0  0  0  0  0
  -14.3576  -36.7928   19.0938 C   0  0  0  0  0  0  0  0  0  0  0  0
  -15.5067  -36.5155   19.8165 C   0  0  0  0  0  0  0  0  0  0  0  0
  -16.7426  -36.8097   19.2558 C   0  0  0  0  0  0  0  0  0  0  0  0
  -16.8634  -37.3827   17.9734 C   0  0  0  0  0  0  0  0  0  0  0  0
  -15.6858  -37.6359   17.2614 C   0  0  0  0  0  0  0  0  0  0  0  0
  -18.1845  -37.6831   17.3945 C   0  0  0  0  0  0  0  0  0  0  0  0
  -19.3115  -37.8189   18.2105 C   0  0  0  0  0  0  0  0  0  0  0  0
  -20.5617  -38.0184   17.6572 C   0  0  0  0  0  0  0  0  0  0  0  0
  -20.7237  -38.1156   16.2642 C   0  0  0  0  0  0  0  0  0  0  0  0
  -19.6103  -38.0251   15.4250 C   0  0  0  0  0  0  0  0  0  0  0  0
  -18.3712  -37.8121   16.0046 C   0  0  0  0  0  0  0  0  0  0  0  0
  -19.6925  -38.1181   14.0918 N   0  0  0  0  0  0  0  0  0  0  0  0
  -20.9122  -38.2995   13.5750 C   0  0  0  0  0  0  0  0  0  0  0  0
  -22.0480  -38.3783   14.2854 N   0  0  0  0  0  0  0  0  0  0  0  0
  -21.9484  -38.2888   15.6168 C   0  0  0  0  0  0  0  0  0  0  0  0
  -23.1260  -38.3931   16.3285 N   0  0  0  0  0  0  0  0  0  0  0  0
  -21.0063  -38.4166   12.0809 C   0  0  0  0  0  0  0  0  0  0  0  0
  -11.5627  -34.0360   20.8249 H   0  0  0  0  0  0  0  0  0  0  0  0
  -10.3179  -35.0660   20.1026 H   0  0  0  0  0  0  0  0  0  0  0  0
  -12.0170  -35.3627   19.7759 H   0  0  0  0  0  0  0  0  0  0  0  0
  -12.2214  -33.2009   18.5709 H   0  0  0  0  0  0  0  0  0  0  0  0
   -9.8862  -34.9694   17.5425 H   0  0  0  0  0  0  0  0  0  0  0  0
  -11.1256  -37.0488   17.8630 H   0  0  0  0  0  0  0  0  0  0  0  0
  -10.5780  -32.1973   19.8287 H   0  0  0  0  0  0  0  0  0  0  0  0
  -10.3320  -33.8814   15.4519 H   0  0  0  0  0  0  0  0  0  0  0  0
  -11.4759  -32.9247   16.1401 H   0  0  0  0  0  0  0  0  0  0  0  0
  -13.4073  -36.6169   19.5619 H   0  0  0  0  0  0  0  0  0  0  0  0
  -15.4546  -36.0933   20.8176 H   0  0  0  0  0  0  0  0  0  0  0  0
  -17.6224  -36.5735   19.8502 H   0  0  0  0  0  0  0  0  0  0  0  0
  -15.7074  -38.0895   16.2720 H   0  0  0  0  0  0  0  0  0  0  0  0
  -19.2441  -37.7626   19.2949 H   0  0  0  0  0  0  0  0  0  0  0  0
  -21.4072  -38.0848   18.3345 H   0  0  0  0  0  0  0  0  0  0  0  0
  -17.5328  -37.7258   15.3173 H   0  0  0  0  0  0  0  0  0  0  0  0
  -23.9762  -38.4864   15.7967 H   0  0  0  0  0  0  0  0  0  0  0  0
  -23.1692  -38.2743   17.3268 H   0  0  0  0  0  0  0  0  0  0  0  0
  -20.0203  -38.3372   11.6207 H   0  0  0  0  0  0  0  0  0  0  0  0
  -21.6408  -37.6166   11.6803 H   0  0  0  0  0  0  0  0  0  0  0  0
  -21.4412  -39.3835   11.8051 H   0  0  0  0  0  0  0  0  0  0  0  0
   -9.8755  -32.7155   16.5955 H   0  0  0  0  0  0  0  0  0  0  0  0
  1  2  1  0  0  0  0
  1 30  1  0  0  0  0
  1 31  1  0  0  0  0
  1 32  1  0  0  0  0
  2  3  1  0  0  0  0
  2  6  1  0  0  0  0
  2 33  1  6  0  0  0
  3  4  1  0  0  0  0
  3  7  1  0  0  0  0
  3 34  1  1  0  0  0
  4  5  1  0  0  0  0
  4  8  2  0  0  0  0
  5  9  1  0  0  0  0
  5 35  1  0  0  0  0
  6 36  1  0  0  0  0
  7 37  1  0  0  0  0
  7 38  1  0  0  0  0
  7 51  1  0  0  0  0
  9 10  2  0  0  0  0
  9 11  2  0  0  0  0
  9 12  1  0  0  0  0
 12 13  2  0  0  0  0
 12 17  1  0  0  0  0
 13 14  1  0  0  0  0
 13 39  1  0  0  0  0
 14 15  2  0  0  0  0
 14 40  1  0  0  0  0
 15 16  1  0  0  0  0
 15 41  1  0  0  0  0
 16 17  2  0  0  0  0
 16 18  1  0  0  0  0
 17 42  1  0  0  0  0
 18 19  2  0  0  0  0
 18 23  1  0  0  0  0
 19 20  1  0  0  0  0
 19 43  1  0  0  0  0
 20 21  2  0  0  0  0
 20 44  1  0  0  0  0
 21 22  1  0  0  0  0
 21 27  1  0  0  0  0
 22 23  2  0  0  0  0
 22 24  1  0  0  0  0
 23 45  1  0  0  0  0
 24 25  2  0  0  0  0
 25 26  1  0  0  0  0
 25 29  1  0  0  0  0
 26 27  2  0  0  0  0
 27 28  1  0  0  0  0
 28 46  1  0  0  0  0
 28 47  1  0  0  0  0
 29 48  1  0  0  0  0
 29 49  1  0  0  0  0
 29 50  1  0  0  0  0
M  CHG  1   7   1
M  END
$$$$
