X8Z
 OpenBabel04111918493D

 28 28  0  0  1  0  0  0  0  0999 V2000
  -43.9157    5.9648   -3.2612 O   0  0  0  0  0  0  0  0  0  0  0  0
  -43.0843    5.8993   -2.3504 C   0  0  0  0  0  0  0  0  0  0  0  0
  -42.9015    7.0731   -1.4072 C   0  0  1  0  0  0  0  0  0  0  0  0
  -42.5506    8.3054   -2.2440 C   0  0  0  0  0  0  0  0  0  0  0  0
  -41.1783    7.9747   -3.4224 S   0  0  0  0  0  0  0  0  0  0  0  0
  -44.2078    7.2636   -0.6445 C   0  0  0  0  0  0  0  0  0  0  0  0
  -42.2022    4.8544   -2.1988 N   0  0  0  0  0  0  0  0  0  0  0  0
  -42.4217    3.6297   -2.9626 C   0  0  2  0  0  0  0  0  0  0  0  0
  -43.6313    2.7519   -2.5111 C   0  0  0  0  0  0  0  0  0  0  0  0
  -43.8833    1.7686   -3.2795 O   0  0  0  0  0  0  0  0  0  0  0  0
  -44.1818    3.0766   -1.4170 O   0  0  0  0  0  0  0  0  0  0  0  0
  -41.2864    4.6222   -1.1019 C   0  0  0  0  0  0  0  0  0  0  0  0
  -40.5015    3.3705   -1.4651 C   0  0  0  0  0  0  0  0  0  0  0  0
  -41.1219    2.8690   -2.7760 C   0  0  0  0  0  0  0  0  0  0  0  0
  -42.1108    6.9086   -0.6716 H   0  0  0  0  0  0  0  0  0  0  0  0
  -42.2194    9.1176   -1.5885 H   0  0  0  0  0  0  0  0  0  0  0  0
  -43.4362    8.6649   -2.7826 H   0  0  0  0  0  0  0  0  0  0  0  0
  -41.2379    9.1146   -4.1113 H   0  0  0  0  0  0  0  0  0  0  0  0
  -44.4310    6.3737   -0.0460 H   0  0  0  0  0  0  0  0  0  0  0  0
  -45.0430    7.4118   -1.3363 H   0  0  0  0  0  0  0  0  0  0  0  0
  -44.1509    8.1277    0.0207 H   0  0  0  0  0  0  0  0  0  0  0  0
  -42.5680    3.8997   -4.0156 H   0  0  0  0  0  0  0  0  0  0  0  0
  -41.8503    4.4841   -0.1730 H   0  0  0  0  0  0  0  0  0  0  0  0
  -40.6161    5.4753   -0.9809 H   0  0  0  0  0  0  0  0  0  0  0  0
  -40.5804    2.6204   -0.6758 H   0  0  0  0  0  0  0  0  0  0  0  0
  -39.4587    3.5972   -1.6048 H   0  0  0  0  0  0  0  0  0  0  0  0
  -40.4325    3.0788   -3.6001 H   0  0  0  0  0  0  0  0  0  0  0  0
  -41.2359    1.7835   -2.7463 H   0  0  0  0  0  0  0  0  0  0  0  0
  1  2  2  0  0  0  0
  2  3  1  0  0  0  0
  2  7  1  0  0  0  0
  3  4  1  0  0  0  0
  3  6  1  0  0  0  0
  3 15  1  1  0  0  0
  4  5  1  0  0  0  0
  4 16  1  0  0  0  0
  4 17  1  0  0  0  0
  5 18  1  0  0  0  0
  6 19  1  0  0  0  0
  6 20  1  0  0  0  0
  6 21  1  0  0  0  0
  7  8  1  0  0  0  0
  7 12  1  0  0  0  0
  8  9  1  0  0  0  0
  8 14  1  0  0  0  0
  8 22  1  6  0  0  0
  9 10  2  0  0  0  0
  9 11  1  0  0  0  0
 12 13  1  0  0  0  0
 12 23  1  0  0  0  0
 12 24  1  0  0  0  0
 13 14  1  0  0  0  0
 13 25  1  0  0  0  0
 13 26  1  0  0  0  0
 14 27  1  0  0  0  0
 14 28  1  0  0  0  0
M  END
$$$$
