YFD
 OpenBabel04111917363D

 47 47  0  0  0  0  0  0  0  0999 V2000
  -14.1417   27.8139  -50.8276 C   0  0  0  0  0  0  0  0  0  0  0  0
  -15.0787   26.8114  -50.1684 C   0  0  0  0  0  0  0  0  0  0  0  0
  -14.9832   25.4449  -50.8510 C   0  0  0  0  0  0  0  0  0  0  0  0
  -15.9631   24.4018  -50.2934 C   0  0  0  0  0  0  0  0  0  0  0  0
  -15.7437   24.1017  -48.8033 C   0  0  0  0  0  0  0  0  0  0  0  0
  -16.1365   22.7067  -48.3430 C   0  0  0  0  0  0  0  0  0  0  0  0
  -17.4591   22.2008  -48.2144 C   0  0  0  0  0  0  0  0  0  0  0  0
  -18.7028   23.0282  -48.5366 C   0  0  0  0  0  0  0  0  0  0  0  0
  -19.8092   22.3888  -48.5736 O   0  0  0  0  0  0  0  0  0  0  0  0
  -18.5876   24.2650  -48.7734 O   0  0  0  0  0  0  0  0  0  0  0  0
  -17.6068   20.8596  -47.7341 C   0  0  0  0  0  0  0  0  0  0  0  0
  -18.8439   20.2482  -47.6725 O   0  0  0  0  0  0  0  0  0  0  0  0
  -15.0653   21.8616  -47.9976 C   0  0  0  0  0  0  0  0  0  0  0  0
  -15.2583   20.5535  -47.5473 C   0  0  0  0  0  0  0  0  0  0  0  0
  -14.1526   19.7957  -47.2600 O   0  0  0  0  0  0  0  0  0  0  0  0
  -13.4900   19.4380  -48.4696 C   0  0  0  0  0  0  0  0  0  0  0  0
  -16.5408   20.0328  -47.3595 C   0  0  0  0  0  0  0  0  0  0  0  0
  -16.8073   18.6397  -46.8867 C   0  0  0  0  0  0  0  0  0  0  0  0
  -16.1701   18.3194  -45.5464 C   0  0  0  0  0  0  0  0  0  0  0  0
  -16.7591   17.9797  -44.4019 C   0  0  0  0  0  0  0  0  0  0  0  0
  -15.8801   17.7142  -43.1985 C   0  0  0  0  0  0  0  0  0  0  0  0
  -18.2391   17.8670  -44.1678 C   0  0  0  0  0  0  0  0  0  0  0  0
  -14.2113   28.7871  -50.3317 H   0  0  0  0  0  0  0  0  0  0  0  0
  -14.3966   27.9513  -51.8834 H   0  0  0  0  0  0  0  0  0  0  0  0
  -13.1023   27.4749  -50.7672 H   0  0  0  0  0  0  0  0  0  0  0  0
  -16.1066   27.1888  -50.2213 H   0  0  0  0  0  0  0  0  0  0  0  0
  -14.8155   26.7271  -49.1081 H   0  0  0  0  0  0  0  0  0  0  0  0
  -13.9572   25.0658  -50.7651 H   0  0  0  0  0  0  0  0  0  0  0  0
  -15.1844   25.5669  -51.9234 H   0  0  0  0  0  0  0  0  0  0  0  0
  -15.8646   23.4857  -50.8881 H   0  0  0  0  0  0  0  0  0  0  0  0
  -16.9783   24.7731  -50.4583 H   0  0  0  0  0  0  0  0  0  0  0  0
  -16.2259   24.8528  -48.1686 H   0  0  0  0  0  0  0  0  0  0  0  0
  -14.6703   24.2329  -48.6014 H   0  0  0  0  0  0  0  0  0  0  0  0
  -19.4228   20.7295  -48.3352 H   0  0  0  0  0  0  0  0  0  0  0  0
  -14.0453   22.2321  -48.0735 H   0  0  0  0  0  0  0  0  0  0  0  0
  -12.6131   18.8454  -48.2121 H   0  0  0  0  0  0  0  0  0  0  0  0
  -13.1450   20.3203  -49.0235 H   0  0  0  0  0  0  0  0  0  0  0  0
  -14.1516   18.8310  -49.1022 H   0  0  0  0  0  0  0  0  0  0  0  0
  -16.4420   17.9166  -47.6288 H   0  0  0  0  0  0  0  0  0  0  0  0
  -17.8853   18.4223  -46.8291 H   0  0  0  0  0  0  0  0  0  0  0  0
  -15.1143   18.3618  -45.5594 H   0  0  0  0  0  0  0  0  0  0  0  0
  -16.4654   17.4572  -42.2984 H   0  0  0  0  0  0  0  0  0  0  0  0
  -15.2665   18.5931  -42.9640 H   0  0  0  0  0  0  0  0  0  0  0  0
  -15.2085   16.8704  -43.4115 H   0  0  0  0  0  0  0  0  0  0  0  0
  -18.8388   18.0915  -45.0432 H   0  0  0  0  0  0  0  0  0  0  0  0
  -18.5852   18.5762  -43.3681 H   0  0  0  0  0  0  0  0  0  0  0  0
  -18.5128   16.8584  -43.8437 H   0  0  0  0  0  0  0  0  0  0  0  0
  1  2  1  0  0  0  0
  1 23  1  0  0  0  0
  1 24  1  0  0  0  0
  1 25  1  0  0  0  0
  2  3  1  0  0  0  0
  2 26  1  0  0  0  0
  2 27  1  0  0  0  0
  3  4  1  0  0  0  0
  3 28  1  0  0  0  0
  3 29  1  0  0  0  0
  4  5  1  0  0  0  0
  4 30  1  0  0  0  0
  4 31  1  0  0  0  0
  5  6  1  0  0  0  0
  5 32  1  0  0  0  0
  5 33  1  0  0  0  0
  6  7  2  0  0  0  0
  6 13  1  0  0  0  0
  7  8  1  0  0  0  0
  7 11  1  0  0  0  0
  8  9  2  0  0  0  0
  8 10  1  0  0  0  0
 11 12  1  0  0  0  0
 11 17  2  0  0  0  0
 12 34  1  0  0  0  0
 13 14  2  0  0  0  0
 13 35  1  0  0  0  0
 14 15  1  0  0  0  0
 14 17  1  0  0  0  0
 15 16  1  0  0  0  0
 16 36  1  0  0  0  0
 16 37  1  0  0  0  0
 16 38  1  0  0  0  0
 17 18  1  0  0  0  0
 18 19  1  0  0  0  0
 18 39  1  0  0  0  0
 18 40  1  0  0  0  0
 19 20  2  0  0  0  0
 19 41  1  0  0  0  0
 20 21  1  0  0  0  0
 20 22  1  0  0  0  0
 21 42  1  0  0  0  0
 21 43  1  0  0  0  0
 21 44  1  0  0  0  0
 22 45  1  0  0  0  0
 22 46  1  0  0  0  0
 22 47  1  0  0  0  0
M  END
$$$$
