YJA
 OpenBabel04111918113D

 68 71  0  0  1  0  0  0  0  0999 V2000
    2.1128  -19.2719    6.6168 C   0  0  0  0  0  0  0  0  0  0  0  0
    1.0104  -18.4482    6.4006 C   0  0  0  0  0  0  0  0  0  0  0  0
    0.2121  -18.6780    5.3496 F   0  0  0  0  0  0  0  0  0  0  0  0
    0.7153  -17.3976    7.2585 C   0  0  0  0  0  0  0  0  0  0  0  0
    1.5368  -17.1642    8.3557 C   0  0  0  0  0  0  0  0  0  0  0  0
    2.6467  -17.9870    8.5829 C   0  0  0  0  0  0  0  0  0  0  0  0
    2.9476  -19.0460    7.7125 C   0  0  0  0  0  0  0  0  0  0  0  0
    4.0723  -19.8405    8.0259 N   0  0  0  0  0  0  0  0  0  0  0  0
    4.5845  -20.8910    7.2755 C   0  0  0  0  0  0  0  0  0  0  0  0
    4.1981  -21.2226    6.1586 O   0  0  0  0  0  0  0  0  0  0  0  0
    5.6753  -21.6549    8.0281 C   0  0  0  0  0  0  0  0  0  0  0  0
    6.1718  -22.8338    7.2597 C   0  0  0  0  0  0  0  0  0  0  0  0
    7.4264  -23.1816    6.8079 C   0  0  0  0  0  0  0  0  0  0  0  0
    5.3510  -23.8376    6.8230 N   0  3  0  0  0  0  0  0  0  0  0  0
    5.9911  -24.8038    6.1427 N   0  0  0  0  0  0  0  0  0  0  0  0
    7.2701  -24.4167    6.1314 C   0  0  0  0  0  0  0  0  0  0  0  0
    8.2269  -25.1590    5.5315 N   0  0  0  0  0  0  0  0  0  0  0  0
    9.6307  -25.0758    5.5824 C   0  0  0  0  0  0  0  0  0  0  0  0
   10.1775  -24.0118    6.2067 N   0  0  0  0  0  0  0  0  0  0  0  0
   11.4993  -23.9788    6.3453 C   0  0  0  0  0  0  0  0  0  0  0  0
   12.3533  -24.9108    5.9250 N   0  0  0  0  0  0  0  0  0  0  0  0
   11.8162  -25.9620    5.3014 C   0  0  0  0  0  0  0  0  0  0  0  0
   12.7195  -26.9258    4.8684 C   0  0  0  0  0  0  0  0  0  0  0  0
   10.4444  -26.1262    5.0804 C   0  0  0  0  0  0  0  0  0  0  0  0
   10.0219  -27.3041    4.4034 C   0  0  0  0  0  0  0  0  0  0  0  0
   10.9505  -28.2597    3.9589 C   0  0  0  0  0  0  0  0  0  0  0  0
   12.3105  -28.0665    4.1821 C   0  0  0  0  0  0  0  0  0  0  0  0
   13.1589  -29.0294    3.6933 O   0  0  0  0  0  0  0  0  0  0  0  0
   14.5575  -28.7923    3.8934 C   0  0  0  0  0  0  0  0  0  0  0  0
   15.3693  -29.9046    3.2297 C   0  0  0  0  0  0  0  0  0  0  0  0
   14.8491  -31.2752    3.6465 C   0  0  0  0  0  0  0  0  0  0  0  0
   15.5668  -32.4322    2.9844 N   0  3  2  0  0  0  0  0  0  0  0  0
   17.0042  -32.6195    3.4608 C   0  0  0  0  0  0  0  0  0  0  0  0
   17.0554  -33.6615    4.5597 C   0  0  0  0  0  0  0  0  0  0  0  0
   15.4616  -32.5952    1.4761 C   0  0  0  0  0  0  0  0  0  0  0  0
   14.2602  -31.9471    0.7820 C   0  0  0  0  0  0  0  0  0  0  0  0
   14.2899  -32.3348   -0.5866 O   0  0  0  0  0  0  0  0  0  0  0  0
    2.2727  -20.0806    5.9142 H   0  0  0  0  0  0  0  0  0  0  0  0
   -0.1515  -16.7740    7.0658 H   0  0  0  0  0  0  0  0  0  0  0  0
    1.3142  -16.3455    9.0356 H   0  0  0  0  0  0  0  0  0  0  0  0
    3.2702  -17.7834    9.4506 H   0  0  0  0  0  0  0  0  0  0  0  0
    4.5620  -19.6002    8.8794 H   0  0  0  0  0  0  0  0  0  0  0  0
    5.2583  -21.9956    8.9838 H   0  0  0  0  0  0  0  0  0  0  0  0
    6.5008  -20.9665    8.2432 H   0  0  0  0  0  0  0  0  0  0  0  0
    8.3286  -22.6030    6.9368 H   0  0  0  0  0  0  0  0  0  0  0  0
    4.3444  -23.9127    6.9348 H   0  0  0  0  0  0  0  0  0  0  0  0
    7.8594  -25.8696    4.9192 H   0  0  0  0  0  0  0  0  0  0  0  0
   11.9236  -23.1212    6.8524 H   0  0  0  0  0  0  0  0  0  0  0  0
   13.7592  -26.7383    5.0937 H   0  0  0  0  0  0  0  0  0  0  0  0
    8.9700  -27.4889    4.2087 H   0  0  0  0  0  0  0  0  0  0  0  0
   10.5993  -29.1447    3.4362 H   0  0  0  0  0  0  0  0  0  0  0  0
   14.7842  -28.7837    4.9659 H   0  0  0  0  0  0  0  0  0  0  0  0
   14.8508  -27.8388    3.4388 H   0  0  0  0  0  0  0  0  0  0  0  0
   16.4223  -29.7733    3.4974 H   0  0  0  0  0  0  0  0  0  0  0  0
   15.3128  -29.7712    2.1487 H   0  0  0  0  0  0  0  0  0  0  0  0
   13.7869  -31.4075    3.4183 H   0  0  0  0  0  0  0  0  0  0  0  0
   14.9688  -31.4151    4.7275 H   0  0  0  0  0  0  0  0  0  0  0  0
   17.3896  -31.6583    3.8090 H   0  0  0  0  0  0  0  0  0  0  0  0
   17.6142  -32.9494    2.6137 H   0  0  0  0  0  0  0  0  0  0  0  0
   18.0877  -33.7896    4.9011 H   0  0  0  0  0  0  0  0  0  0  0  0
   16.7004  -34.6307    4.1948 H   0  0  0  0  0  0  0  0  0  0  0  0
   16.4461  -33.3684    5.4194 H   0  0  0  0  0  0  0  0  0  0  0  0
   15.4361  -33.6795    1.3037 H   0  0  0  0  0  0  0  0  0  0  0  0
   16.3864  -32.2201    1.0249 H   0  0  0  0  0  0  0  0  0  0  0  0
   14.3186  -30.8591    0.8029 H   0  0  0  0  0  0  0  0  0  0  0  0
   13.3102  -32.2660    1.2175 H   0  0  0  0  0  0  0  0  0  0  0  0
   13.6417  -31.7915   -1.0737 H   0  0  0  0  0  0  0  0  0  0  0  0
   15.0535  -33.2518    3.3383 H   0  0  0  0  0  0  0  0  0  0  0  0
  1  2  2  0  0  0  0
  1  7  1  0  0  0  0
  1 38  1  0  0  0  0
  2  3  1  0  0  0  0
  2  4  1  0  0  0  0
  4  5  2  0  0  0  0
  4 39  1  0  0  0  0
  5  6  1  0  0  0  0
  5 40  1  0  0  0  0
  6  7  2  0  0  0  0
  6 41  1  0  0  0  0
  7  8  1  0  0  0  0
  8  9  1  0  0  0  0
  8 42  1  0  0  0  0
  9 10  2  0  0  0  0
  9 11  1  0  0  0  0
 11 12  1  0  0  0  0
 11 43  1  0  0  0  0
 11 44  1  0  0  0  0
 12 13  1  0  0  0  0
 12 14  2  0  0  0  0
 13 16  2  0  0  0  0
 13 45  1  0  0  0  0
 14 15  1  0  0  0  0
 14 46  1  0  0  0  0
 15 16  1  0  0  0  0
 16 17  1  0  0  0  0
 17 18  1  0  0  0  0
 17 47  1  0  0  0  0
 18 19  2  0  0  0  0
 18 24  1  0  0  0  0
 19 20  1  0  0  0  0
 20 21  2  0  0  0  0
 20 48  1  0  0  0  0
 21 22  1  0  0  0  0
 22 23  2  0  0  0  0
 22 24  1  0  0  0  0
 23 27  1  0  0  0  0
 23 49  1  0  0  0  0
 24 25  2  0  0  0  0
 25 26  1  0  0  0  0
 25 50  1  0  0  0  0
 26 27  2  0  0  0  0
 26 51  1  0  0  0  0
 27 28  1  0  0  0  0
 28 29  1  0  0  0  0
 29 30  1  0  0  0  0
 29 52  1  0  0  0  0
 29 53  1  0  0  0  0
 30 31  1  0  0  0  0
 30 54  1  0  0  0  0
 30 55  1  0  0  0  0
 31 32  1  0  0  0  0
 31 56  1  0  0  0  0
 31 57  1  0  0  0  0
 32 33  1  0  0  0  0
 32 35  1  0  0  0  0
 32 68  1  1  0  0  0
 33 34  1  0  0  0  0
 33 58  1  0  0  0  0
 33 59  1  0  0  0  0
 34 60  1  0  0  0  0
 34 61  1  0  0  0  0
 34 62  1  0  0  0  0
 35 36  1  0  0  0  0
 35 63  1  0  0  0  0
 35 64  1  0  0  0  0
 36 37  1  0  0  0  0
 36 65  1  0  0  0  0
 36 66  1  0  0  0  0
 37 67  1  0  0  0  0
M  CHG  2  14   1  32   1
M  END
$$$$
