YS1
 OpenBabel04111921083D

 38 40  0  0  1  0  0  0  0  0999 V2000
   16.2620   32.4217  -10.4994 O   0  0  0  0  0  0  0  0  0  0  0  0
   16.7266   33.7040   -9.7677 P   0  0  0  0  0  0  0  0  0  0  0  0
   18.0288   33.4357   -8.9914 O   0  0  0  0  0  0  0  0  0  0  0  0
   16.7676   34.8834  -10.7435 O   0  0  0  0  0  0  0  0  0  0  0  0
   15.2154   34.0902   -8.3071 C   0  0  0  0  0  0  0  0  0  0  0  0
   15.2072   35.8100   -7.0039 P   0  0  0  0  0  0  0  0  0  0  0  0
   13.9680   35.5735   -6.1023 O   0  0  0  0  0  0  0  0  0  0  0  0
   16.5024   35.7514   -6.1816 O   0  0  0  0  0  0  0  0  0  0  0  0
   15.0165   37.0666   -7.8631 O   0  0  0  0  0  0  0  0  0  0  0  0
   15.3667   33.0029   -7.2659 N   0  0  0  0  0  0  0  0  0  0  0  0
   15.2176   31.7005   -7.7147 C   0  0  0  0  0  0  0  0  0  0  0  0
   16.0688   30.7258   -7.1692 C   0  0  0  0  0  0  0  0  0  0  0  0
   14.1563   31.3273   -8.4679 N   0  0  0  0  0  0  0  0  0  0  0  0
   14.1092   30.0468   -8.8833 C   0  0  0  0  0  0  0  0  0  0  0  0
   14.9545   29.0496   -8.4357 C   0  0  0  0  0  0  0  0  0  0  0  0
   15.9560   29.3700   -7.5149 C   0  0  0  0  0  0  0  0  0  0  0  0
   16.8810   28.3371   -6.9850 C   0  0  0  0  0  0  0  0  0  0  0  0
   16.4423   27.0257   -6.7244 C   0  0  0  0  0  0  0  0  0  0  0  0
   17.3212   26.0292   -6.2840 C   0  0  0  0  0  0  0  0  0  0  0  0
   18.2374   28.6145   -6.7477 C   0  0  0  0  0  0  0  0  0  0  0  0
   19.1203   27.6234   -6.2938 C   0  0  0  0  0  0  0  0  0  0  0  0
   18.6651   26.3277   -6.0584 C   0  0  0  0  0  0  0  0  0  0  0  0
   19.6010   25.3917   -5.6826 O   0  0  0  0  0  0  0  0  0  0  0  0
   19.1440   24.4055   -4.7283 C   0  0  1  0  0  0  0  0  0  0  0  0
   20.0648   23.6038   -3.9580 C   0  0  0  0  0  0  0  0  0  0  0  0
   19.3768   24.5420   -3.3144 C   0  0  0  0  0  0  0  0  0  0  0  0
   14.2552   34.1306   -8.8315 H   0  0  0  0  0  0  0  0  0  0  0  0
   16.3032   33.2247   -6.9377 H   0  0  0  0  0  0  0  0  0  0  0  0
   16.8406   31.0766   -6.4971 H   0  0  0  0  0  0  0  0  0  0  0  0
   13.3379   29.8524   -9.6146 H   0  0  0  0  0  0  0  0  0  0  0  0
   14.8465   28.0535   -8.8378 H   0  0  0  0  0  0  0  0  0  0  0  0
   15.3970   26.7677   -6.8755 H   0  0  0  0  0  0  0  0  0  0  0  0
   16.9312   25.0284   -6.1537 H   0  0  0  0  0  0  0  0  0  0  0  0
   18.6234   29.6159   -6.9505 H   0  0  0  0  0  0  0  0  0  0  0  0
   20.1642   27.8826   -6.1432 H   0  0  0  0  0  0  0  0  0  0  0  0
   18.2701   23.8255   -5.0052 H   0  0  0  0  0  0  0  0  0  0  0  0
   21.1363   23.5184   -3.8946 H   0  0  0  0  0  0  0  0  0  0  0  0
   19.8557   25.2928   -2.7034 H   0  0  0  0  0  0  0  0  0  0  0  0
  1  2  2  0  0  0  0
  2  3  1  0  0  0  0
  2  4  1  0  0  0  0
  2  5  1  0  0  0  0
  5  6  1  0  0  0  0
  5 10  1  0  0  0  0
  5 27  1  0  0  0  0
  6  7  2  0  0  0  0
  6  8  1  0  0  0  0
  6  9  1  0  0  0  0
 10 11  1  0  0  0  0
 10 28  1  0  0  0  0
 11 12  2  0  0  0  0
 11 13  1  0  0  0  0
 12 16  1  0  0  0  0
 12 29  1  0  0  0  0
 13 14  2  0  0  0  0
 14 15  1  0  0  0  0
 14 30  1  0  0  0  0
 15 16  2  0  0  0  0
 15 31  1  0  0  0  0
 16 17  1  0  0  0  0
 17 18  2  0  0  0  0
 17 20  1  0  0  0  0
 18 19  1  0  0  0  0
 18 32  1  0  0  0  0
 19 22  2  0  0  0  0
 19 33  1  0  0  0  0
 20 21  2  0  0  0  0
 20 34  1  0  0  0  0
 21 22  1  0  0  0  0
 21 35  1  0  0  0  0
 22 23  1  0  0  0  0
 23 24  1  0  0  0  0
 24 25  1  0  0  0  0
 24 26  1  0  0  0  0
 24 36  1  6  0  0  0
 25 26  2  0  0  0  0
 25 37  1  0  0  0  0
 26 38  1  0  0  0  0
M  END
$$$$
