Z13
 OpenBabel04111920383D

 24 24  0  0  0  0  0  0  0  0999 V2000
  -23.4176   42.9238   11.5458 F   0  0  0  0  0  0  0  0  0  0  0  0
  -25.1207   41.5705   11.5533 F   0  0  0  0  0  0  0  0  0  0  0  0
  -25.4407   43.7251   11.5462 F   0  0  0  0  0  0  0  0  0  0  0  0
  -24.6365   42.7407   17.8819 C   0  0  0  0  0  0  0  0  0  0  0  0
  -23.5688   41.7785   18.2909 N   0  3  0  0  0  0  0  0  0  0  0  0
  -22.1873   42.3261   18.2396 C   0  0  0  0  0  0  0  0  0  0  0  0
  -23.7761   43.5900   15.6662 C   0  0  0  0  0  0  0  0  0  0  0  0
  -24.7155   42.8309   16.3889 C   0  0  0  0  0  0  0  0  0  0  0  0
  -25.6512   42.0620   15.6860 C   0  0  0  0  0  0  0  0  0  0  0  0
  -25.6325   42.0400   14.2971 C   0  0  0  0  0  0  0  0  0  0  0  0
  -23.7381   43.5372   14.2795 C   0  0  0  0  0  0  0  0  0  0  0  0
  -24.6698   42.7614   13.5765 C   0  0  0  0  0  0  0  0  0  0  0  0
  -24.6609   42.7457   12.0667 C   0  0  0  0  0  0  0  0  0  0  0  0
  -24.4283   43.7125   18.3488 H   0  0  0  0  0  0  0  0  0  0  0  0
  -25.5742   42.3616   18.3038 H   0  0  0  0  0  0  0  0  0  0  0  0
  -23.7639   41.4342   19.2375 H   0  0  0  0  0  0  0  0  0  0  0  0
  -21.5053   41.5422   18.5777 H   0  0  0  0  0  0  0  0  0  0  0  0
  -22.1422   43.1976   18.8949 H   0  0  0  0  0  0  0  0  0  0  0  0
  -21.9392   42.5892   17.2119 H   0  0  0  0  0  0  0  0  0  0  0  0
  -23.0366   44.2072   16.1748 H   0  0  0  0  0  0  0  0  0  0  0  0
  -26.3999   41.4654   16.2085 H   0  0  0  0  0  0  0  0  0  0  0  0
  -26.3789   41.4436   13.7588 H   0  0  0  0  0  0  0  0  0  0  0  0
  -22.9755   44.0994   13.7389 H   0  0  0  0  0  0  0  0  0  0  0  0
  -23.6291   40.9579   17.6703 H   0  0  0  0  0  0  0  0  0  0  0  0
  1 13  1  0  0  0  0
  2 13  1  0  0  0  0
  3 13  1  0  0  0  0
  4  5  1  0  0  0  0
  4  8  1  0  0  0  0
  4 14  1  0  0  0  0
  4 15  1  0  0  0  0
  5  6  1  0  0  0  0
  5 16  1  0  0  0  0
  5 24  1  0  0  0  0
  6 17  1  0  0  0  0
  6 18  1  0  0  0  0
  6 19  1  0  0  0  0
  7  8  2  0  0  0  0
  7 11  1  0  0  0  0
  7 20  1  0  0  0  0
  8  9  1  0  0  0  0
  9 10  2  0  0  0  0
  9 21  1  0  0  0  0
 10 12  1  0  0  0  0
 10 22  1  0  0  0  0
 11 12  2  0  0  0  0
 11 23  1  0  0  0  0
 12 13  1  0  0  0  0
M  CHG  1   5   1
M  END
$$$$
