Z25
 OpenBabel04111918283D

 25 26  0  0  0  0  0  0  0  0999 V2000
  -14.3337   28.5201    9.6557 O   0  0  0  0  0  0  0  0  0  0  0  0
  -13.1085   28.1990    9.6567 C   0  0  0  0  0  0  0  0  0  0  0  0
  -12.1021   28.9101    9.9686 O   0  0  0  0  0  0  0  0  0  0  0  0
  -12.8181   26.7000    9.5359 C   0  0  0  0  0  0  0  0  0  0  0  0
  -12.0968   26.3319    8.2422 C   0  0  0  0  0  0  0  0  0  0  0  0
  -13.0146   25.8191    7.1236 C   0  0  0  0  0  0  0  0  0  0  0  0
  -13.4804   26.6702    6.1072 C   0  0  0  0  0  0  0  0  0  0  0  0
  -13.1087   27.8924    5.9880 O   0  0  0  0  0  0  0  0  0  0  0  0
  -14.3520   26.0405    5.1822 C   0  0  0  0  0  0  0  0  0  0  0  0
  -15.0091   26.7535    4.0445 C   0  0  0  0  0  0  0  0  0  0  0  0
  -14.9131   27.9273    3.6990 O   0  0  0  0  0  0  0  0  0  0  0  0
  -13.3175   24.4812    7.1964 N   0  0  0  0  0  0  0  0  0  0  0  0
  -14.1200   23.9045    6.2529 N   0  0  0  0  0  0  0  0  0  0  0  0
  -14.6456   24.6770    5.2729 C   0  0  0  0  0  0  0  0  0  0  0  0
  -15.4664   23.9726    4.3614 N   0  0  0  0  0  0  0  0  0  0  0  0
  -16.0120   24.6444    3.4048 C   0  0  0  0  0  0  0  0  0  0  0  0
  -16.7892   24.0444    2.4780 N   0  0  0  0  0  0  0  0  0  0  0  0
  -15.8269   25.9800    3.2564 N   0  3  0  0  0  0  0  0  0  0  0  0
  -13.7312   26.1137    9.6827 H   0  0  0  0  0  0  0  0  0  0  0  0
  -12.1567   26.4589   10.3827 H   0  0  0  0  0  0  0  0  0  0  0  0
  -11.3899   25.5234    8.4673 H   0  0  0  0  0  0  0  0  0  0  0  0
  -11.4730   27.1579    7.8873 H   0  0  0  0  0  0  0  0  0  0  0  0
  -16.9853   23.0662    2.6177 H   0  0  0  0  0  0  0  0  0  0  0  0
  -17.3052   24.5606    1.7892 H   0  0  0  0  0  0  0  0  0  0  0  0
  -16.2447   26.4942    2.5017 H   0  0  0  0  0  0  0  0  0  0  0  0
  1  2  2  0  0  0  0
  2  3  1  0  0  0  0
  2  4  1  0  0  0  0
  4  5  1  0  0  0  0
  4 19  1  0  0  0  0
  4 20  1  0  0  0  0
  5  6  1  0  0  0  0
  5 21  1  0  0  0  0
  5 22  1  0  0  0  0
  6  7  2  0  0  0  0
  6 12  1  0  0  0  0
  7  8  1  0  0  0  0
  7  9  1  0  0  0  0
  9 10  1  0  0  0  0
  9 14  2  0  0  0  0
 10 11  2  0  0  0  0
 10 18  1  0  0  0  0
 12 13  2  0  0  0  0
 13 14  1  0  0  0  0
 14 15  1  0  0  0  0
 15 16  2  0  0  0  0
 16 17  1  0  0  0  0
 16 18  1  0  0  0  0
 17 23  1  0  0  0  0
 17 24  1  0  0  0  0
 18 25  1  0  0  0  0
M  CHG  1  18   1
M  END
$$$$
