3FT5_MO8_A_237
 OpenBabel03301717163D

 23 24  0  0  0  0  0  0  0  0999 V2000
   29.0642   11.4769   23.7276 N   0  0  0  0  0  0  0  0  0  0  0  0
   30.1605   10.8611   24.3310 C   0  0  0  0  0  0  0  0  0  0  0  0
   29.9014   10.1845   25.4560 N   0  0  0  0  0  0  0  0  0  0  0  0
   30.9406    9.5641   26.0809 C   0  0  0  0  0  0  0  0  0  0  0  0
   30.5863    8.7869   27.3379 C   0  0  0  0  0  0  0  0  0  0  0  0
   32.2283    9.6666   25.5659 C   0  0  0  0  0  0  0  0  0  0  0  0
   31.3627   10.9985   23.7597 N   0  0  0  0  0  0  0  0  0  0  0  0
   32.4074   10.4035   24.3822 C   0  0  0  0  0  0  0  0  0  0  0  0
   33.7758   10.5897   23.7485 C   0  0  0  0  0  0  0  0  0  0  0  0
   34.5482    9.2902   23.5478 C   0  0  0  0  0  0  0  0  0  0  0  0
   34.2706    8.0276   24.8505 S   0  0  0  0  0  0  0  0  0  0  0  0
   33.4102    8.9812   26.1790 C   0  0  0  0  0  0  0  0  0  0  0  0
   29.1988   11.9870   22.8807 H   0  0  0  0  0  0  0  0  0  0  0  0
   28.1700   11.3756   24.1690 H   0  0  0  0  0  0  0  0  0  0  0  0
   29.5107    8.8410   27.5642 H   0  0  0  0  0  0  0  0  0  0  0  0
   31.1265    9.1889   28.2057 H   0  0  0  0  0  0  0  0  0  0  0  0
   30.8455    7.7243   27.2322 H   0  0  0  0  0  0  0  0  0  0  0  0
   34.3947   11.2432   24.3785 H   0  0  0  0  0  0  0  0  0  0  0  0
   33.6976   11.0794   22.7602 H   0  0  0  0  0  0  0  0  0  0  0  0
   35.6332    9.4881   23.5070 H   0  0  0  0  0  0  0  0  0  0  0  0
   34.2771    8.8407   22.5821 H   0  0  0  0  0  0  0  0  0  0  0  0
   33.1174    8.2417   26.9374 H   0  0  0  0  0  0  0  0  0  0  0  0
   34.0973    9.6853   26.6751 H   0  0  0  0  0  0  0  0  0  0  0  0
  1  2  1  0  0  0  0
  1 13  1  0  0  0  0
  1 14  1  0  0  0  0
  2  3  2  0  0  0  0
  2  7  1  0  0  0  0
  3  4  1  0  0  0  0
  4  5  1  0  0  0  0
  4  6  2  0  0  0  0
  5 15  1  0  0  0  0
  5 16  1  0  0  0  0
  5 17  1  0  0  0  0
  6  8  1  0  0  0  0
  6 12  1  0  0  0  0
  7  8  2  0  0  0  0
  8  9  1  0  0  0  0
  9 10  1  0  0  0  0
  9 18  1  0  0  0  0
  9 19  1  0  0  0  0
 10 11  1  0  0  0  0
 10 20  1  0  0  0  0
 10 21  1  0  0  0  0
 11 12  1  0  0  0  0
 12 22  1  0  0  0  0
 12 23  1  0  0  0  0
M  END
$$$$
