3R4O_FU3_A_901
 OpenBabel03301717213D

 55 58  0  0  0  0  0  0  0  0999 V2000
    2.6517  -32.4802   52.0683 C   0  0  0  0  0  0  0  0  0  0  0  0
    2.6101  -30.2397   51.1455 C   0  0  0  0  0  0  0  0  0  0  0  0
   -4.7888  -37.4965   46.1153 C   0  0  0  0  0  0  0  0  0  0  0  0
   -3.5644  -37.3600   47.0460 C   0  0  0  0  0  0  0  0  0  0  0  0
   -4.1294  -36.4068   45.2367 C   0  0  0  0  0  0  0  0  0  0  0  0
    0.4511  -33.4983   48.2276 C   0  0  0  0  0  0  0  0  0  0  0  0
    0.6937  -34.5171   46.0403 C   0  0  0  0  0  0  0  0  0  0  0  0
    2.7607  -36.6753   50.7769 C   0  0  0  0  0  0  0  0  0  0  0  0
    1.4972  -36.7551   49.9146 C   0  0  0  0  0  0  0  0  0  0  0  0
    2.8308  -35.3321   51.5172 C   0  0  0  0  0  0  0  0  0  0  0  0
    2.5433  -31.0999   52.2374 C   0  0  0  0  0  0  0  0  0  0  0  0
    2.8176  -33.0053   50.7859 C   0  0  0  0  0  0  0  0  0  0  0  0
    2.7767  -30.7618   49.8612 C   0  0  0  0  0  0  0  0  0  0  0  0
    1.8305  -33.3171   47.7264 C   0  0  0  0  0  0  0  0  0  0  0  0
    1.9863  -33.8728   46.4766 C   0  0  0  0  0  0  0  0  0  0  0  0
    2.8717  -32.1504   49.6509 C   0  0  0  0  0  0  0  0  0  0  0  0
    2.9245  -32.7243   48.2940 C   0  0  0  0  0  0  0  0  0  0  0  0
    4.1527  -33.2396   46.4105 C   0  0  0  0  0  0  0  0  0  0  0  0
   -3.4539  -35.9022   46.5334 C   0  0  0  0  0  0  0  0  0  0  0  0
   -1.4714  -34.7232   47.4067 C   0  0  0  0  0  0  0  0  0  0  0  0
    1.5178  -37.8720   48.8999 C   0  0  0  0  0  0  0  0  0  0  0  0
    5.3514  -33.2018   45.7519 N   0  0  0  0  0  0  0  0  0  0  0  0
    3.1340  -33.8468   45.7861 N   0  0  0  0  0  0  0  0  0  0  0  0
    4.1025  -32.6770   47.6340 N   0  0  0  0  0  0  0  0  0  0  0  0
   -2.0735  -35.4091   46.3880 N   0  0  0  0  0  0  0  0  0  0  0  0
   -0.1996  -34.2888   47.1872 N   0  0  0  0  0  0  0  0  0  0  0  0
   -2.0421  -34.5131   48.4769 O   0  0  0  0  0  0  0  0  0  0  0  0
    2.9214  -34.3372   50.5001 O   0  0  0  0  0  0  0  0  0  0  0  0
    1.6264  -39.0791   49.4915 F   0  0  0  0  0  0  0  0  0  0  0  0
    0.3764  -37.8643   48.1732 F   0  0  0  0  0  0  0  0  0  0  0  0
    2.5441  -37.7284   48.0365 F   0  0  0  0  0  0  0  0  0  0  0  0
    2.3139  -30.4470   53.8140 Cl  0  0  0  0  0  0  0  0  0  0  0  0
    2.7983  -29.6355   48.5460 Cl  0  0  0  0  0  0  0  0  0  0  0  0
    2.5936  -33.1210   52.9430 H   0  0  0  0  0  0  0  0  0  0  0  0
    2.5175  -29.1660   51.2903 H   0  0  0  0  0  0  0  0  0  0  0  0
   -5.7312  -37.1821   46.5806 H   0  0  0  0  0  0  0  0  0  0  0  0
   -4.9312  -38.4725   45.6467 H   0  0  0  0  0  0  0  0  0  0  0  0
   -2.7266  -38.0099   46.7652 H   0  0  0  0  0  0  0  0  0  0  0  0
   -3.7639  -37.4786   48.1141 H   0  0  0  0  0  0  0  0  0  0  0  0
   -4.8226  -35.7089   44.7595 H   0  0  0  0  0  0  0  0  0  0  0  0
   -3.4442  -36.8059   44.4816 H   0  0  0  0  0  0  0  0  0  0  0  0
   -0.0720  -32.5449   48.3362 H   0  0  0  0  0  0  0  0  0  0  0  0
    0.4093  -34.0409   49.1758 H   0  0  0  0  0  0  0  0  0  0  0  0
    0.8075  -35.5933   45.8779 H   0  0  0  0  0  0  0  0  0  0  0  0
    0.2753  -34.0282   45.1569 H   0  0  0  0  0  0  0  0  0  0  0  0
    3.6415  -36.7622   50.1274 H   0  0  0  0  0  0  0  0  0  0  0  0
    2.7853  -37.5073   51.4878 H   0  0  0  0  0  0  0  0  0  0  0  0
    1.3834  -35.8353   49.3485 H   0  0  0  0  0  0  0  0  0  0  0  0
    0.6160  -36.8484   50.5583 H   0  0  0  0  0  0  0  0  0  0  0  0
    3.7260  -35.2989   52.1474 H   0  0  0  0  0  0  0  0  0  0  0  0
    1.9340  -35.1988   52.1333 H   0  0  0  0  0  0  0  0  0  0  0  0
   -4.0906  -35.1961   47.0821 H   0  0  0  0  0  0  0  0  0  0  0  0
    6.0980  -32.6779   46.1710 H   0  0  0  0  0  0  0  0  0  0  0  0
    5.3780  -33.5472   44.8076 H   0  0  0  0  0  0  0  0  0  0  0  0
   -1.5616  -35.5489   45.5314 H   0  0  0  0  0  0  0  0  0  0  0  0
  1 11  2  0  0  0  0
  1 12  1  0  0  0  0
  1 34  1  0  0  0  0
  2 11  1  0  0  0  0
  2 13  2  0  0  0  0
  2 35  1  0  0  0  0
  3  4  1  0  0  0  0
  3  5  1  0  0  0  0
  3 36  1  0  0  0  0
  3 37  1  0  0  0  0
  4 19  1  0  0  0  0
  4 38  1  0  0  0  0
  4 39  1  0  0  0  0
  5 19  1  0  0  0  0
  5 40  1  0  0  0  0
  5 41  1  0  0  0  0
  6 14  1  0  0  0  0
  6 26  1  0  0  0  0
  6 42  1  0  0  0  0
  6 43  1  0  0  0  0
  7 15  1  0  0  0  0
  7 26  1  0  0  0  0
  7 44  1  0  0  0  0
  7 45  1  0  0  0  0
  8  9  1  0  0  0  0
  8 10  1  0  0  0  0
  8 46  1  0  0  0  0
  8 47  1  0  0  0  0
  9 21  1  0  0  0  0
  9 48  1  0  0  0  0
  9 49  1  0  0  0  0
 10 28  1  0  0  0  0
 10 50  1  0  0  0  0
 10 51  1  0  0  0  0
 11 32  1  0  0  0  0
 12 16  2  0  0  0  0
 12 28  1  0  0  0  0
 13 16  1  0  0  0  0
 13 33  1  0  0  0  0
 14 15  2  0  0  0  0
 14 17  1  0  0  0  0
 15 23  1  0  0  0  0
 16 17  1  0  0  0  0
 17 24  2  0  0  0  0
 18 22  1  0  0  0  0
 18 23  2  0  0  0  0
 18 24  1  0  0  0  0
 19 25  1  0  0  0  0
 19 52  1  0  0  0  0
 20 25  1  0  0  0  0
 20 26  1  0  0  0  0
 20 27  2  0  0  0  0
 21 29  1  0  0  0  0
 21 30  1  0  0  0  0
 21 31  1  0  0  0  0
 22 53  1  0  0  0  0
 22 54  1  0  0  0  0
 25 55  1  0  0  0  0
M  END
$$$$
