003
 OpenBabel04051918253D

 58 62  0  0  0  0  0  0  0  0999 V2000
   15.2344   56.4945   36.3382 C   0  0  0  0  0  0  0  0  0  0  0  0
   15.8874   55.5327   35.8713 O   0  0  0  0  0  0  0  0  0  0  0  0
   15.3564   56.8538   37.6721 N   0  3  0  0  0  0  0  0  0  0  0  0
   16.2462   56.0686   38.5729 C   0  0  0  0  0  0  0  0  0  0  0  0
   17.6254   56.7139   38.8328 C   0  0  0  0  0  0  0  0  0  0  0  0
   18.5675   56.4496   37.6624 C   0  0  0  0  0  0  0  0  0  0  0  0
   18.2713   56.1411   40.1022 C   0  0  0  0  0  0  0  0  0  0  0  0
   14.6129   57.9035   38.1463 C   0  0  0  0  0  0  0  0  0  0  0  0
   14.5928   58.3080   39.4274 N   0  0  0  0  0  0  0  0  0  0  0  0
   13.7486   59.3961   39.4143 N   0  3  0  0  0  0  0  0  0  0  0  0
   13.5981   60.2360   40.6294 C   0  0  0  0  0  0  0  0  0  0  0  0
   14.1945   61.6258   40.3740 C   0  0  0  0  0  0  0  0  0  0  0  0
   15.5745   61.7894   40.0244 C   0  0  0  0  0  0  0  0  0  0  0  0
   16.5033   60.7203   39.9520 C   0  0  0  0  0  0  0  0  0  0  0  0
   17.8464   60.9000   39.6026 C   0  0  0  0  0  0  0  0  0  0  0  0
   18.3085   62.1893   39.3188 C   0  0  0  0  0  0  0  0  0  0  0  0
   17.4249   63.2767   39.3835 C   0  0  0  0  0  0  0  0  0  0  0  0
   16.0676   63.1052   39.7287 C   0  0  0  0  0  0  0  0  0  0  0  0
   15.1890   64.2034   39.7888 C   0  0  0  0  0  0  0  0  0  0  0  0
   13.8397   64.0402   40.1301 C   0  0  0  0  0  0  0  0  0  0  0  0
   13.3437   62.7573   40.4221 C   0  0  0  0  0  0  0  0  0  0  0  0
   13.1773   59.6422   38.1670 C   0  0  0  0  0  0  0  0  0  0  0  0
   12.2112   60.7198   37.8805 C   0  0  0  0  0  0  0  0  0  0  0  0
   10.9145   60.6886   38.4358 C   0  0  0  0  0  0  0  0  0  0  0  0
   10.0272   61.7096   38.1248 C   0  0  0  0  0  0  0  0  0  0  0  0
   10.3495   62.7553   37.3119 N   0  0  0  0  0  0  0  0  0  0  0  0
   11.6066   62.7718   36.7797 C   0  0  0  0  0  0  0  0  0  0  0  0
   12.5545   61.7914   37.0341 C   0  0  0  0  0  0  0  0  0  0  0  0
   13.7613   58.6599   37.3486 C   0  0  0  0  0  0  0  0  0  0  0  0
   13.6027   58.3336   35.9580 C   0  0  0  0  0  0  0  0  0  0  0  0
   12.8664   58.9567   35.2015 O   0  0  0  0  0  0  0  0  0  0  0  0
   14.3763   57.2409   35.5323 N   0  3  0  0  0  0  0  0  0  0  0  0
   14.2720   56.8693   34.1234 C   0  0  0  0  0  0  0  0  0  0  0  0
   16.4027   55.0747   38.1379 H   0  0  0  0  0  0  0  0  0  0  0  0
   15.7270   55.9321   39.5310 H   0  0  0  0  0  0  0  0  0  0  0  0
   17.5057   57.7935   38.9665 H   0  0  0  0  0  0  0  0  0  0  0  0
   19.5498   56.8999   37.8458 H   0  0  0  0  0  0  0  0  0  0  0  0
   18.1577   56.8716   36.7420 H   0  0  0  0  0  0  0  0  0  0  0  0
   18.7069   55.3704   37.5203 H   0  0  0  0  0  0  0  0  0  0  0  0
   17.6342   56.3140   40.9774 H   0  0  0  0  0  0  0  0  0  0  0  0
   19.2446   56.6150   40.2902 H   0  0  0  0  0  0  0  0  0  0  0  0
   18.4340   55.0603   40.0006 H   0  0  0  0  0  0  0  0  0  0  0  0
   14.0860   59.7366   41.4812 H   0  0  0  0  0  0  0  0  0  0  0  0
   12.5223   60.2714   40.8602 H   0  0  0  0  0  0  0  0  0  0  0  0
   16.1829   59.7019   40.1763 H   0  0  0  0  0  0  0  0  0  0  0  0
   18.5229   60.0495   39.5580 H   0  0  0  0  0  0  0  0  0  0  0  0
   19.3501   62.3435   39.0506 H   0  0  0  0  0  0  0  0  0  0  0  0
   17.8054   64.2834   39.1587 H   0  0  0  0  0  0  0  0  0  0  0  0
   15.5639   65.2126   39.5659 H   0  0  0  0  0  0  0  0  0  0  0  0
   13.1771   64.9040   40.1710 H   0  0  0  0  0  0  0  0  0  0  0  0
   12.2868   62.6483   40.6735 H   0  0  0  0  0  0  0  0  0  0  0  0
   10.6092   59.8758   39.0898 H   0  0  0  0  0  0  0  0  0  0  0  0
    9.0111   61.7107   38.5379 H   0  0  0  0  0  0  0  0  0  0  0  0
   11.8454   63.6194   36.1235 H   0  0  0  0  0  0  0  0  0  0  0  0
   13.5445   61.8576   36.5868 H   0  0  0  0  0  0  0  0  0  0  0  0
   14.9054   56.0087   33.8874 H   0  0  0  0  0  0  0  0  0  0  0  0
   14.5799   57.7111   33.4892 H   0  0  0  0  0  0  0  0  0  0  0  0
   13.2334   56.6151   33.8745 H   0  0  0  0  0  0  0  0  0  0  0  0
  1  2  2  0  0  0  0
  1  3  1  0  0  0  0
  1 32  1  0  0  0  0
  3  4  1  0  0  0  0
  3  8  1  0  0  0  0
  4  5  1  0  0  0  0
  4 34  1  0  0  0  0
  4 35  1  0  0  0  0
  5  6  1  0  0  0  0
  5  7  1  0  0  0  0
  5 36  1  0  0  0  0
  6 37  1  0  0  0  0
  6 38  1  0  0  0  0
  6 39  1  0  0  0  0
  7 40  1  0  0  0  0
  7 41  1  0  0  0  0
  7 42  1  0  0  0  0
  8  9  1  0  0  0  0
  8 29  2  0  0  0  0
  9 10  1  0  0  0  0
 10 11  1  0  0  0  0
 10 22  2  0  0  0  0
 11 12  1  0  0  0  0
 11 43  1  0  0  0  0
 11 44  1  0  0  0  0
 12 13  2  0  0  0  0
 12 21  1  0  0  0  0
 13 14  1  0  0  0  0
 13 18  1  0  0  0  0
 14 15  2  0  0  0  0
 14 45  1  0  0  0  0
 15 16  1  0  0  0  0
 15 46  1  0  0  0  0
 16 17  2  0  0  0  0
 16 47  1  0  0  0  0
 17 18  1  0  0  0  0
 17 48  1  0  0  0  0
 18 19  2  0  0  0  0
 19 20  1  0  0  0  0
 19 49  1  0  0  0  0
 20 21  2  0  0  0  0
 20 50  1  0  0  0  0
 21 51  1  0  0  0  0
 22 23  1  0  0  0  0
 22 29  1  0  0  0  0
 23 24  2  0  0  0  0
 23 28  1  0  0  0  0
 24 25  1  0  0  0  0
 24 52  1  0  0  0  0
 25 26  2  0  0  0  0
 25 53  1  0  0  0  0
 26 27  1  0  0  0  0
 27 28  2  0  0  0  0
 27 54  1  0  0  0  0
 28 55  1  0  0  0  0
 29 30  1  0  0  0  0
 30 31  2  0  0  0  0
 30 32  1  0  0  0  0
 32 33  1  0  0  0  0
 33 56  1  0  0  0  0
 33 57  1  0  0  0  0
 33 58  1  0  0  0  0
M  CHG  3   3   1  10   1  32   1
M  END
$$$$
