017
 OpenBabel04051917553D

 75 78  0  0  1  0  0  0  0  0999 V2000
   21.1565   28.8123   14.0092 N   0  0  0  0  0  0  0  0  0  0  0  0
   20.5623   27.6481   14.4450 C   0  0  0  0  0  0  0  0  0  0  0  0
   19.2135   27.4439   14.1323 C   0  0  0  0  0  0  0  0  0  0  0  0
   18.5724   26.2761   14.5559 C   0  0  0  0  0  0  0  0  0  0  0  0
   19.2775   25.3175   15.3046 C   0  0  0  0  0  0  0  0  0  0  0  0
   20.6409   25.5164   15.6142 C   0  0  0  0  0  0  0  0  0  0  0  0
   21.2812   26.6964   15.1846 C   0  0  0  0  0  0  0  0  0  0  0  0
   18.4251   23.8003   15.8377 S   0  0  0  0  0  0  0  0  0  0  0  0
   17.3008   23.5722   14.9390 O   0  0  0  0  0  0  0  0  0  0  0  0
   19.4382   22.7701   15.9619 O   0  0  0  0  0  0  0  0  0  0  0  0
   17.8272   24.2023   17.4290 N   0  0  0  0  0  0  0  0  0  0  0  0
   18.8364   24.5739   18.4861 C   0  0  0  0  0  0  0  0  0  0  0  0
   18.5336   23.9620   19.8702 C   0  0  0  0  0  0  0  0  0  0  0  0
   18.3180   22.4662   19.7040 C   0  0  0  0  0  0  0  0  0  0  0  0
   19.7255   24.2060   20.8000 C   0  0  0  0  0  0  0  0  0  0  0  0
   16.5707   24.9982   17.5090 C   0  0  0  0  0  0  0  0  0  0  0  0
   15.4244   24.0861   17.9940 C   0  0  1  0  0  0  0  0  0  0  0  0
   14.2762   24.8729   18.3513 O   0  0  0  0  0  0  0  0  0  0  0  0
   15.0525   22.9331   16.9999 C   0  0  1  0  0  0  0  0  0  0  0  0
   14.1398   22.0245   17.6960 N   0  0  0  0  0  0  0  0  0  0  0  0
   14.4899   20.7472   18.0763 C   0  0  0  0  0  0  0  0  0  0  0  0
   15.5209   20.2164   17.8057 O   0  0  0  0  0  0  0  0  0  0  0  0
   13.4551   20.1947   18.7904 O   0  0  0  0  0  0  0  0  0  0  0  0
   13.4979   18.7566   19.0074 C   0  0  1  0  0  0  0  0  0  0  0  0
   12.8585   18.4123   20.3550 C   0  0  0  0  0  0  0  0  0  0  0  0
   11.4444   18.6208   20.1648 O   0  0  0  0  0  0  0  0  0  0  0  0
   11.1755   18.1713   18.8348 C   0  0  1  0  0  0  0  0  0  0  0  0
   10.3125   19.0202   18.0810 O   0  0  0  0  0  0  0  0  0  0  0  0
   11.1275   19.5926   17.0597 C   0  0  0  0  0  0  0  0  0  0  0  0
   12.2148   18.5914   16.7379 C   0  0  0  0  0  0  0  0  0  0  0  0
   12.5049   18.0344   18.0991 C   0  0  1  0  0  0  0  0  0  0  0  0
   14.3466   23.3458   15.6985 C   0  0  0  0  0  0  0  0  0  0  0  0
   12.5516   21.8420   14.6836 C   0  0  0  0  0  0  0  0  0  0  0  0
   12.1561   20.7611   13.8866 C   0  0  0  0  0  0  0  0  0  0  0  0
   13.1247   19.9935   13.2388 C   0  0  0  0  0  0  0  0  0  0  0  0
   14.4788   20.3087   13.3809 C   0  0  0  0  0  0  0  0  0  0  0  0
   14.8708   21.3925   14.1750 C   0  0  0  0  0  0  0  0  0  0  0  0
   13.9114   22.1705   14.8316 C   0  0  0  0  0  0  0  0  0  0  0  0
   20.6125   29.4785   13.4760 H   0  0  0  0  0  0  0  0  0  0  0  0
   22.1280   28.9943   14.2138 H   0  0  0  0  0  0  0  0  0  0  0  0
   18.6766   28.1916   13.5578 H   0  0  0  0  0  0  0  0  0  0  0  0
   17.5305   26.1199   14.3077 H   0  0  0  0  0  0  0  0  0  0  0  0
   21.1922   24.7707   16.1864 H   0  0  0  0  0  0  0  0  0  0  0  0
   22.3303   26.8708   15.4188 H   0  0  0  0  0  0  0  0  0  0  0  0
   18.8622   25.6653   18.5883 H   0  0  0  0  0  0  0  0  0  0  0  0
   19.8275   24.2307   18.1740 H   0  0  0  0  0  0  0  0  0  0  0  0
   17.6380   24.4128   20.3239 H   0  0  0  0  0  0  0  0  0  0  0  0
   18.0935   21.9911   20.6615 H   0  0  0  0  0  0  0  0  0  0  0  0
   19.2170   22.0101   19.2756 H   0  0  0  0  0  0  0  0  0  0  0  0
   17.4835   22.2869   19.0225 H   0  0  0  0  0  0  0  0  0  0  0  0
   19.8795   25.2815   20.9411 H   0  0  0  0  0  0  0  0  0  0  0  0
   20.6353   23.7790   20.3577 H   0  0  0  0  0  0  0  0  0  0  0  0
   19.5645   23.7403   21.7798 H   0  0  0  0  0  0  0  0  0  0  0  0
   16.3358   25.4227   16.5286 H   0  0  0  0  0  0  0  0  0  0  0  0
   16.6806   25.8614   18.1973 H   0  0  0  0  0  0  0  0  0  0  0  0
   15.7454   23.6061   18.9290 H   0  0  0  0  0  0  0  0  0  0  0  0
   13.9955   25.3669   17.5668 H   0  0  0  0  0  0  0  0  0  0  0  0
   15.9820   22.4088   16.7602 H   0  0  0  0  0  0  0  0  0  0  0  0
   13.2081   22.3544   17.8594 H   0  0  0  0  0  0  0  0  0  0  0  0
   14.5232   18.3766   18.9114 H   0  0  0  0  0  0  0  0  0  0  0  0
   13.2143   19.0437   21.1675 H   0  0  0  0  0  0  0  0  0  0  0  0
   13.0141   17.3507   20.6220 H   0  0  0  0  0  0  0  0  0  0  0  0
   10.7175   17.1897   18.8920 H   0  0  0  0  0  0  0  0  0  0  0  0
   11.5640   20.5080   17.4607 H   0  0  0  0  0  0  0  0  0  0  0  0
   10.5211   19.8311   16.1901 H   0  0  0  0  0  0  0  0  0  0  0  0
   13.0947   19.0424   16.2801 H   0  0  0  0  0  0  0  0  0  0  0  0
   11.8440   17.7995   16.0637 H   0  0  0  0  0  0  0  0  0  0  0  0
   12.7646   16.9742   18.0367 H   0  0  0  0  0  0  0  0  0  0  0  0
   15.0069   23.9750   15.1022 H   0  0  0  0  0  0  0  0  0  0  0  0
   13.4546   23.9316   15.9463 H   0  0  0  0  0  0  0  0  0  0  0  0
   11.7935   22.4335   15.1935 H   0  0  0  0  0  0  0  0  0  0  0  0
   11.1012   20.5156   13.7810 H   0  0  0  0  0  0  0  0  0  0  0  0
   12.8292   19.1503   12.6195 H   0  0  0  0  0  0  0  0  0  0  0  0
   15.2320   19.7117   12.8725 H   0  0  0  0  0  0  0  0  0  0  0  0
   15.9274   21.6281   14.2810 H   0  0  0  0  0  0  0  0  0  0  0  0
  1  2  1  0  0  0  0
  1 39  1  0  0  0  0
  1 40  1  0  0  0  0
  2  3  2  0  0  0  0
  2  7  1  0  0  0  0
  3  4  1  0  0  0  0
  3 41  1  0  0  0  0
  4  5  2  0  0  0  0
  4 42  1  0  0  0  0
  5  6  1  0  0  0  0
  5  8  1  0  0  0  0
  6  7  2  0  0  0  0
  6 43  1  0  0  0  0
  7 44  1  0  0  0  0
  8  9  2  0  0  0  0
  8 10  2  0  0  0  0
  8 11  1  0  0  0  0
 11 12  1  0  0  0  0
 11 16  1  0  0  0  0
 12 13  1  0  0  0  0
 12 45  1  0  0  0  0
 12 46  1  0  0  0  0
 13 14  1  0  0  0  0
 13 15  1  0  0  0  0
 13 47  1  0  0  0  0
 14 48  1  0  0  0  0
 14 49  1  0  0  0  0
 14 50  1  0  0  0  0
 15 51  1  0  0  0  0
 15 52  1  0  0  0  0
 15 53  1  0  0  0  0
 16 17  1  0  0  0  0
 16 54  1  0  0  0  0
 16 55  1  0  0  0  0
 17 18  1  0  0  0  0
 17 19  1  0  0  0  0
 17 56  1  1  0  0  0
 18 57  1  0  0  0  0
 19 20  1  0  0  0  0
 19 32  1  0  0  0  0
 19 58  1  6  0  0  0
 20 21  1  0  0  0  0
 20 59  1  0  0  0  0
 21 22  2  0  0  0  0
 21 23  1  0  0  0  0
 23 24  1  0  0  0  0
 24 25  1  0  0  0  0
 24 31  1  0  0  0  0
 24 60  1  6  0  0  0
 25 26  1  0  0  0  0
 25 61  1  0  0  0  0
 25 62  1  0  0  0  0
 26 27  1  0  0  0  0
 27 28  1  0  0  0  0
 27 31  1  0  0  0  0
 27 63  1  1  0  0  0
 28 29  1  0  0  0  0
 29 30  1  0  0  0  0
 29 64  1  0  0  0  0
 29 65  1  0  0  0  0
 30 31  1  0  0  0  0
 30 66  1  0  0  0  0
 30 67  1  0  0  0  0
 31 68  1  6  0  0  0
 32 38  1  0  0  0  0
 32 69  1  0  0  0  0
 32 70  1  0  0  0  0
 33 34  2  0  0  0  0
 33 38  1  0  0  0  0
 33 71  1  0  0  0  0
 34 35  1  0  0  0  0
 34 72  1  0  0  0  0
 35 36  2  0  0  0  0
 35 73  1  0  0  0  0
 36 37  1  0  0  0  0
 36 74  1  0  0  0  0
 37 38  2  0  0  0  0
 37 75  1  0  0  0  0
M  END
$$$$
