017
 OpenBabel04051917553D

 75 78  0  0  1  0  0  0  0  0999 V2000
   11.3824   17.4059   21.4828 N   0  0  0  0  0  0  0  0  0  0  0  0
   12.4363   18.0104   20.8252 C   0  0  0  0  0  0  0  0  0  0  0  0
   13.3258   18.8274   21.5285 C   0  0  0  0  0  0  0  0  0  0  0  0
   14.3525   19.4998   20.8547 C   0  0  0  0  0  0  0  0  0  0  0  0
   14.5078   19.3368   19.4722 C   0  0  0  0  0  0  0  0  0  0  0  0
   13.6434   18.4918   18.7628 C   0  0  0  0  0  0  0  0  0  0  0  0
   12.6017   17.8430   19.4433 C   0  0  0  0  0  0  0  0  0  0  0  0
   15.7861   20.2328   18.5992 S   0  0  0  0  0  0  0  0  0  0  0  0
   16.7334   20.7291   19.6034 O   0  0  0  0  0  0  0  0  0  0  0  0
   16.2337   19.4211   17.5011 O   0  0  0  0  0  0  0  0  0  0  0  0
   14.9818   21.5978   17.9404 N   0  0  0  0  0  0  0  0  0  0  0  0
   13.9478   21.3613   16.8771 C   0  0  0  0  0  0  0  0  0  0  0  0
   13.9596   22.4350   15.7719 C   0  0  0  0  0  0  0  0  0  0  0  0
   15.2928   22.4580   15.0377 C   0  0  0  0  0  0  0  0  0  0  0  0
   12.8151   22.2120   14.7826 C   0  0  0  0  0  0  0  0  0  0  0  0
   14.7651   22.7707   18.8186 C   0  0  0  0  0  0  0  0  0  0  0  0
   15.6774   23.9561   18.4192 C   0  0  1  0  0  0  0  0  0  0  0  0
   15.1802   25.1389   19.0680 O   0  0  0  0  0  0  0  0  0  0  0  0
   17.1978   23.7940   18.7034 C   0  0  1  0  0  0  0  0  0  0  0  0
   17.9188   24.9088   18.0648 N   0  0  0  0  0  0  0  0  0  0  0  0
   18.6664   24.7254   16.9436 C   0  0  0  0  0  0  0  0  0  0  0  0
   18.8942   23.6634   16.4007 O   0  0  0  0  0  0  0  0  0  0  0  0
   19.1940   25.9159   16.5611 O   0  0  0  0  0  0  0  0  0  0  0  0
   20.2853   25.8774   15.6162 C   0  0  1  0  0  0  0  0  0  0  0  0
   20.1849   27.1439   14.7704 C   0  0  0  0  0  0  0  0  0  0  0  0
   20.7165   28.1930   15.5924 O   0  0  0  0  0  0  0  0  0  0  0  0
   21.6955   27.5974   16.4453 C   0  0  1  0  0  0  0  0  0  0  0  0
   21.5075   27.9588   17.8126 O   0  0  0  0  0  0  0  0  0  0  0  0
   21.2381   26.7675   18.5537 C   0  0  0  0  0  0  0  0  0  0  0  0
   21.7771   25.6111   17.7403 C   0  0  0  0  0  0  0  0  0  0  0  0
   21.6119   26.0877   16.3205 C   0  0  1  0  0  0  0  0  0  0  0  0
   17.5762   23.7391   20.1949 C   0  0  0  0  0  0  0  0  0  0  0  0
   19.8601   24.5660   20.9194 C   0  0  0  0  0  0  0  0  0  0  0  0
   21.2353   24.3751   21.0689 C   0  0  0  0  0  0  0  0  0  0  0  0
   21.8250   23.1694   20.6892 C   0  0  0  0  0  0  0  0  0  0  0  0
   21.0402   22.1441   20.1702 C   0  0  0  0  0  0  0  0  0  0  0  0
   19.6696   22.3356   20.0127 C   0  0  0  0  0  0  0  0  0  0  0  0
   19.0635   23.5395   20.3985 C   0  0  0  0  0  0  0  0  0  0  0  0
   11.2712   17.5088   22.4826 H   0  0  0  0  0  0  0  0  0  0  0  0
   10.7198   16.8393   20.9717 H   0  0  0  0  0  0  0  0  0  0  0  0
   13.1990   18.9671   22.6025 H   0  0  0  0  0  0  0  0  0  0  0  0
   14.9862   20.1889   21.4067 H   0  0  0  0  0  0  0  0  0  0  0  0
   13.7369   18.3842   17.6840 H   0  0  0  0  0  0  0  0  0  0  0  0
   11.8966   17.2196   18.8925 H   0  0  0  0  0  0  0  0  0  0  0  0
   12.9518   21.3397   17.3341 H   0  0  0  0  0  0  0  0  0  0  0  0
   14.1200   20.3875   16.4074 H   0  0  0  0  0  0  0  0  0  0  0  0
   13.7995   23.4206   16.2167 H   0  0  0  0  0  0  0  0  0  0  0  0
   15.2920   23.2239   14.2552 H   0  0  0  0  0  0  0  0  0  0  0  0
   15.5100   21.4873   14.5816 H   0  0  0  0  0  0  0  0  0  0  0  0
   16.0980   22.6928   15.7372 H   0  0  0  0  0  0  0  0  0  0  0  0
   11.8581   22.1981   15.3146 H   0  0  0  0  0  0  0  0  0  0  0  0
   12.9290   21.2638   14.2464 H   0  0  0  0  0  0  0  0  0  0  0  0
   12.7781   23.0229   14.0443 H   0  0  0  0  0  0  0  0  0  0  0  0
   14.9486   22.5030   19.8618 H   0  0  0  0  0  0  0  0  0  0  0  0
   13.7130   23.1001   18.7994 H   0  0  0  0  0  0  0  0  0  0  0  0
   15.5740   24.1357   17.3444 H   0  0  0  0  0  0  0  0  0  0  0  0
   15.2029   24.9725   20.0244 H   0  0  0  0  0  0  0  0  0  0  0  0
   17.5281   22.8713   18.2206 H   0  0  0  0  0  0  0  0  0  0  0  0
   17.8636   25.8270   18.4757 H   0  0  0  0  0  0  0  0  0  0  0  0
   20.2647   24.9826   14.9900 H   0  0  0  0  0  0  0  0  0  0  0  0
   19.1580   27.3936   14.4891 H   0  0  0  0  0  0  0  0  0  0  0  0
   20.8049   27.0893   13.8675 H   0  0  0  0  0  0  0  0  0  0  0  0
   22.6857   27.9246   16.1261 H   0  0  0  0  0  0  0  0  0  0  0  0
   20.1565   26.6865   18.6878 H   0  0  0  0  0  0  0  0  0  0  0  0
   21.6992   26.8451   19.5410 H   0  0  0  0  0  0  0  0  0  0  0  0
   21.2655   24.6685   17.9350 H   0  0  0  0  0  0  0  0  0  0  0  0
   22.8441   25.4621   17.9607 H   0  0  0  0  0  0  0  0  0  0  0  0
   22.4260   25.7108   15.6956 H   0  0  0  0  0  0  0  0  0  0  0  0
   17.0486   22.9202   20.6946 H   0  0  0  0  0  0  0  0  0  0  0  0
   17.2753   24.6648   20.7000 H   0  0  0  0  0  0  0  0  0  0  0  0
   19.4207   25.5270   21.1795 H   0  0  0  0  0  0  0  0  0  0  0  0
   21.8548   25.1713   21.4725 H   0  0  0  0  0  0  0  0  0  0  0  0
   22.8973   23.0309   20.7933 H   0  0  0  0  0  0  0  0  0  0  0  0
   21.4889   21.1958   19.8857 H   0  0  0  0  0  0  0  0  0  0  0  0
   19.0746   21.5466   19.5584 H   0  0  0  0  0  0  0  0  0  0  0  0
  1  2  1  0  0  0  0
  1 39  1  0  0  0  0
  1 40  1  0  0  0  0
  2  3  2  0  0  0  0
  2  7  1  0  0  0  0
  3  4  1  0  0  0  0
  3 41  1  0  0  0  0
  4  5  2  0  0  0  0
  4 42  1  0  0  0  0
  5  6  1  0  0  0  0
  5  8  1  0  0  0  0
  6  7  2  0  0  0  0
  6 43  1  0  0  0  0
  7 44  1  0  0  0  0
  8  9  2  0  0  0  0
  8 10  2  0  0  0  0
  8 11  1  0  0  0  0
 11 12  1  0  0  0  0
 11 16  1  0  0  0  0
 12 13  1  0  0  0  0
 12 45  1  0  0  0  0
 12 46  1  0  0  0  0
 13 14  1  0  0  0  0
 13 15  1  0  0  0  0
 13 47  1  0  0  0  0
 14 48  1  0  0  0  0
 14 49  1  0  0  0  0
 14 50  1  0  0  0  0
 15 51  1  0  0  0  0
 15 52  1  0  0  0  0
 15 53  1  0  0  0  0
 16 17  1  0  0  0  0
 16 54  1  0  0  0  0
 16 55  1  0  0  0  0
 17 18  1  0  0  0  0
 17 19  1  0  0  0  0
 17 56  1  6  0  0  0
 18 57  1  0  0  0  0
 19 20  1  0  0  0  0
 19 32  1  0  0  0  0
 19 58  1  6  0  0  0
 20 21  1  0  0  0  0
 20 59  1  0  0  0  0
 21 22  2  0  0  0  0
 21 23  1  0  0  0  0
 23 24  1  0  0  0  0
 24 25  1  0  0  0  0
 24 31  1  0  0  0  0
 24 60  1  6  0  0  0
 25 26  1  0  0  0  0
 25 61  1  0  0  0  0
 25 62  1  0  0  0  0
 26 27  1  0  0  0  0
 27 28  1  0  0  0  0
 27 31  1  0  0  0  0
 27 63  1  6  0  0  0
 28 29  1  0  0  0  0
 29 30  1  0  0  0  0
 29 64  1  0  0  0  0
 29 65  1  0  0  0  0
 30 31  1  0  0  0  0
 30 66  1  0  0  0  0
 30 67  1  0  0  0  0
 31 68  1  6  0  0  0
 32 38  1  0  0  0  0
 32 69  1  0  0  0  0
 32 70  1  0  0  0  0
 33 34  2  0  0  0  0
 33 38  1  0  0  0  0
 33 71  1  0  0  0  0
 34 35  1  0  0  0  0
 34 72  1  0  0  0  0
 35 36  2  0  0  0  0
 35 73  1  0  0  0  0
 36 37  1  0  0  0  0
 36 74  1  0  0  0  0
 37 38  2  0  0  0  0
 37 75  1  0  0  0  0
M  END
$$$$
