065
 OpenBabel04051919013D

 76 80  0  0  1  0  0  0  0  0999 V2000
   15.7998   34.9264   17.7888 C   0  0  0  0  0  0  0  0  0  0  0  0
   15.2029   35.7689   18.6774 O   0  0  0  0  0  0  0  0  0  0  0  0
   15.8930   37.0082   18.3866 C   0  0  0  0  0  0  0  0  0  0  0  0
   16.8641   36.8864   17.3223 O   0  0  0  0  0  0  0  0  0  0  0  0
   16.7773   35.5538   17.0418 C   0  0  0  0  0  0  0  0  0  0  0  0
   17.5472   34.8870   16.1133 C   0  0  0  0  0  0  0  0  0  0  0  0
   17.3210   33.5172   15.9974 C   0  0  0  0  0  0  0  0  0  0  0  0
   16.3104   32.8827   16.7240 C   0  0  0  0  0  0  0  0  0  0  0  0
   15.5003   33.5906   17.6131 C   0  0  0  0  0  0  0  0  0  0  0  0
   18.3286   32.5430   14.8907 S   0  0  0  0  0  0  0  0  0  0  0  0
   17.5126   31.4503   14.4076 O   0  0  0  0  0  0  0  0  0  0  0  0
   18.9686   33.4708   13.9929 O   0  0  0  0  0  0  0  0  0  0  0  0
   19.5533   31.9188   15.8545 N   0  0  0  0  0  0  0  0  0  0  0  0
   20.4083   32.8937   16.5517 C   0  0  0  0  0  0  0  0  0  0  0  0
   21.8833   32.5115   16.5713 C   0  0  0  0  0  0  0  0  0  0  0  0
   22.4553   32.4652   15.1600 C   0  0  0  0  0  0  0  0  0  0  0  0
   22.6401   33.5361   17.4140 C   0  0  0  0  0  0  0  0  0  0  0  0
   19.2760   30.6715   16.5605 C   0  0  0  0  0  0  0  0  0  0  0  0
   20.1089   29.5184   16.0016 C   0  0  1  0  0  0  0  0  0  0  0  0
   20.0291   28.4086   16.9131 O   0  0  0  0  0  0  0  0  0  0  0  0
   19.7021   29.0686   14.5905 C   0  0  1  0  0  0  0  0  0  0  0  0
   20.7128   28.1557   14.0878 N   0  0  0  0  0  0  0  0  0  0  0  0
   21.5988   28.5000   13.1100 C   0  0  0  0  0  0  0  0  0  0  0  0
   21.6368   29.5483   12.5290 O   0  0  0  0  0  0  0  0  0  0  0  0
   22.3914   27.4306   12.8644 O   0  0  0  0  0  0  0  0  0  0  0  0
   23.2103   27.5154   11.6846 C   0  0  1  0  0  0  0  0  0  0  0  0
   24.5371   26.8815   12.0246 C   0  0  0  0  0  0  0  0  0  0  0  0
   24.3075   25.4682   11.9527 O   0  0  0  0  0  0  0  0  0  0  0  0
   23.2931   25.2453   10.9661 C   0  0  1  0  0  0  0  0  0  0  0  0
   22.2515   24.4205   11.4932 O   0  0  0  0  0  0  0  0  0  0  0  0
   21.0298   25.1621   11.5293 C   0  0  0  0  0  0  0  0  0  0  0  0
   21.1986   26.3683   10.6317 C   0  0  0  0  0  0  0  0  0  0  0  0
   22.6858   26.5904   10.5949 C   0  0  1  0  0  0  0  0  0  0  0  0
   18.3405   28.3789   14.5166 C   0  0  0  0  0  0  0  0  0  0  0  0
   17.8904   26.5921   12.7960 C   0  0  0  0  0  0  0  0  0  0  0  0
   17.6442   26.2044   11.4844 C   0  0  0  0  0  0  0  0  0  0  0  0
   17.4627   27.1623   10.4849 C   0  0  0  0  0  0  0  0  0  0  0  0
   17.6028   28.5068   10.7917 C   0  0  0  0  0  0  0  0  0  0  0  0
   17.8664   28.8978   12.0989 C   0  0  0  0  0  0  0  0  0  0  0  0
   18.0078   27.9411   13.1151 C   0  0  0  0  0  0  0  0  0  0  0  0
   16.4166   37.3525   19.2954 H   0  0  0  0  0  0  0  0  0  0  0  0
   15.1440   37.7675   18.1063 H   0  0  0  0  0  0  0  0  0  0  0  0
   18.3247   35.3806   15.5405 H   0  0  0  0  0  0  0  0  0  0  0  0
   16.1893   31.8075   16.6237 H   0  0  0  0  0  0  0  0  0  0  0  0
   14.6833   33.1029   18.1316 H   0  0  0  0  0  0  0  0  0  0  0  0
   20.0446   32.9924   17.5787 H   0  0  0  0  0  0  0  0  0  0  0  0
   20.3147   33.8601   16.0495 H   0  0  0  0  0  0  0  0  0  0  0  0
   22.0086   31.5308   17.0409 H   0  0  0  0  0  0  0  0  0  0  0  0
   23.5195   32.2091   15.1847 H   0  0  0  0  0  0  0  0  0  0  0  0
   22.3426   33.4364   14.6652 H   0  0  0  0  0  0  0  0  0  0  0  0
   21.9331   31.7122   14.5640 H   0  0  0  0  0  0  0  0  0  0  0  0
   22.2307   33.5722   18.4310 H   0  0  0  0  0  0  0  0  0  0  0  0
   22.5550   34.5376   16.9746 H   0  0  0  0  0  0  0  0  0  0  0  0
   23.7009   33.2736   17.4790 H   0  0  0  0  0  0  0  0  0  0  0  0
   18.2164   30.4211   16.4806 H   0  0  0  0  0  0  0  0  0  0  0  0
   19.4962   30.7941   17.6234 H   0  0  0  0  0  0  0  0  0  0  0  0
   21.1591   29.8261   15.9560 H   0  0  0  0  0  0  0  0  0  0  0  0
   19.0929   28.1442   16.9915 H   0  0  0  0  0  0  0  0  0  0  0  0
   19.6826   29.9598   13.9549 H   0  0  0  0  0  0  0  0  0  0  0  0
   20.7591   27.2297   14.4705 H   0  0  0  0  0  0  0  0  0  0  0  0
   23.3253   28.5453   11.3369 H   0  0  0  0  0  0  0  0  0  0  0  0
   24.8806   27.1498   13.0273 H   0  0  0  0  0  0  0  0  0  0  0  0
   25.3074   27.1373   11.2901 H   0  0  0  0  0  0  0  0  0  0  0  0
   23.7502   24.7446   10.0986 H   0  0  0  0  0  0  0  0  0  0  0  0
   20.8194   25.4543   12.5660 H   0  0  0  0  0  0  0  0  0  0  0  0
   20.2204   24.5087   11.1935 H   0  0  0  0  0  0  0  0  0  0  0  0
   20.6735   27.2417   11.0172 H   0  0  0  0  0  0  0  0  0  0  0  0
   20.8096   26.1640    9.6294 H   0  0  0  0  0  0  0  0  0  0  0  0
   23.0215   26.9235    9.6035 H   0  0  0  0  0  0  0  0  0  0  0  0
   17.5635   29.0605   14.8613 H   0  0  0  0  0  0  0  0  0  0  0  0
   18.3362   27.4981   15.1700 H   0  0  0  0  0  0  0  0  0  0  0  0
   17.9944   25.8289   13.5658 H   0  0  0  0  0  0  0  0  0  0  0  0
   17.5999   25.1538   11.2252 H   0  0  0  0  0  0  0  0  0  0  0  0
   17.2096   26.8379    9.4819 H   0  0  0  0  0  0  0  0  0  0  0  0
   17.5093   29.2562   10.0065 H   0  0  0  0  0  0  0  0  0  0  0  0
   17.9667   29.9512   12.3440 H   0  0  0  0  0  0  0  0  0  0  0  0
  1  2  1  0  0  0  0
  1  5  2  0  0  0  0
  1  9  1  0  0  0  0
  2  3  1  0  0  0  0
  3  4  1  0  0  0  0
  3 41  1  0  0  0  0
  3 42  1  0  0  0  0
  4  5  1  0  0  0  0
  5  6  1  0  0  0  0
  6  7  2  0  0  0  0
  6 43  1  0  0  0  0
  7  8  1  0  0  0  0
  7 10  1  0  0  0  0
  8  9  2  0  0  0  0
  8 44  1  0  0  0  0
  9 45  1  0  0  0  0
 10 11  2  0  0  0  0
 10 12  2  0  0  0  0
 10 13  1  0  0  0  0
 13 14  1  0  0  0  0
 13 18  1  0  0  0  0
 14 15  1  0  0  0  0
 14 46  1  0  0  0  0
 14 47  1  0  0  0  0
 15 16  1  0  0  0  0
 15 17  1  0  0  0  0
 15 48  1  0  0  0  0
 16 49  1  0  0  0  0
 16 50  1  0  0  0  0
 16 51  1  0  0  0  0
 17 52  1  0  0  0  0
 17 53  1  0  0  0  0
 17 54  1  0  0  0  0
 18 19  1  0  0  0  0
 18 55  1  0  0  0  0
 18 56  1  0  0  0  0
 19 20  1  0  0  0  0
 19 21  1  0  0  0  0
 19 57  1  6  0  0  0
 20 58  1  0  0  0  0
 21 22  1  0  0  0  0
 21 34  1  0  0  0  0
 21 59  1  6  0  0  0
 22 23  1  0  0  0  0
 22 60  1  0  0  0  0
 23 24  2  0  0  0  0
 23 25  1  0  0  0  0
 25 26  1  0  0  0  0
 26 27  1  0  0  0  0
 26 33  1  0  0  0  0
 26 61  1  6  0  0  0
 27 28  1  0  0  0  0
 27 62  1  0  0  0  0
 27 63  1  0  0  0  0
 28 29  1  0  0  0  0
 29 30  1  0  0  0  0
 29 33  1  0  0  0  0
 29 64  1  6  0  0  0
 30 31  1  0  0  0  0
 31 32  1  0  0  0  0
 31 65  1  0  0  0  0
 31 66  1  0  0  0  0
 32 33  1  0  0  0  0
 32 67  1  0  0  0  0
 32 68  1  0  0  0  0
 33 69  1  6  0  0  0
 34 40  1  0  0  0  0
 34 70  1  0  0  0  0
 34 71  1  0  0  0  0
 35 36  2  0  0  0  0
 35 40  1  0  0  0  0
 35 72  1  0  0  0  0
 36 37  1  0  0  0  0
 36 73  1  0  0  0  0
 37 38  2  0  0  0  0
 37 74  1  0  0  0  0
 38 39  1  0  0  0  0
 38 75  1  0  0  0  0
 39 40  2  0  0  0  0
 39 76  1  0  0  0  0
M  END
$$$$
