065
 OpenBabel04051919013D

 76 80  0  0  1  0  0  0  0  0999 V2000
   20.7046   27.8167   14.8321 C   0  0  0  0  0  0  0  0  0  0  0  0
   21.5112   28.9099   14.7661 O   0  0  0  0  0  0  0  0  0  0  0  0
   22.7671   28.3590   15.2246 C   0  0  0  0  0  0  0  0  0  0  0  0
   22.6554   26.9752   15.6314 O   0  0  0  0  0  0  0  0  0  0  0  0
   21.3412   26.7300   15.3751 C   0  0  0  0  0  0  0  0  0  0  0  0
   20.6617   25.5570   15.6492 C   0  0  0  0  0  0  0  0  0  0  0  0
   19.2878   25.5117   15.3673 C   0  0  0  0  0  0  0  0  0  0  0  0
   18.6581   26.5867   14.7353 C   0  0  0  0  0  0  0  0  0  0  0  0
   19.3741   27.7597   14.4660 C   0  0  0  0  0  0  0  0  0  0  0  0
   18.3564   24.0467   15.7749 S   0  0  0  0  0  0  0  0  0  0  0  0
   17.2379   23.9747   14.8448 O   0  0  0  0  0  0  0  0  0  0  0  0
   19.2868   22.9703   15.8890 O   0  0  0  0  0  0  0  0  0  0  0  0
   17.7308   24.3313   17.3246 N   0  0  0  0  0  0  0  0  0  0  0  0
   18.6897   24.6703   18.3937 C   0  0  0  0  0  0  0  0  0  0  0  0
   18.3594   24.0153   19.7357 C   0  0  0  0  0  0  0  0  0  0  0  0
   18.3602   22.4943   19.6492 C   0  0  0  0  0  0  0  0  0  0  0  0
   19.4013   24.4559   20.7623 C   0  0  0  0  0  0  0  0  0  0  0  0
   16.4637   25.0672   17.3946 C   0  0  0  0  0  0  0  0  0  0  0  0
   15.3516   24.1849   17.9707 C   0  0  1  0  0  0  0  0  0  0  0  0
   14.2042   24.9810   18.3189 O   0  0  0  0  0  0  0  0  0  0  0  0
   14.9079   23.0551   17.0233 C   0  0  1  0  0  0  0  0  0  0  0  0
   14.0315   22.1639   17.7724 N   0  0  0  0  0  0  0  0  0  0  0  0
   14.3704   20.8989   18.1080 C   0  0  0  0  0  0  0  0  0  0  0  0
   15.3768   20.3316   17.7745 O   0  0  0  0  0  0  0  0  0  0  0  0
   13.3728   20.3572   18.8528 O   0  0  0  0  0  0  0  0  0  0  0  0
   13.4816   18.9423   19.0977 C   0  0  1  0  0  0  0  0  0  0  0  0
   12.8834   18.7001   20.4674 C   0  0  0  0  0  0  0  0  0  0  0  0
   11.4603   18.6721   20.2674 O   0  0  0  0  0  0  0  0  0  0  0  0
   11.2179   18.1794   18.9435 C   0  0  1  0  0  0  0  0  0  0  0  0
   10.3061   19.0315   18.2414 O   0  0  0  0  0  0  0  0  0  0  0  0
   11.0160   19.6714   17.1773 C   0  0  0  0  0  0  0  0  0  0  0  0
   12.1891   18.7738   16.8564 C   0  0  0  0  0  0  0  0  0  0  0  0
   12.5386   18.1598   18.1887 C   0  0  1  0  0  0  0  0  0  0  0  0
   14.1386   23.5509   15.7843 C   0  0  0  0  0  0  0  0  0  0  0  0
   12.4176   21.9727   14.7396 C   0  0  0  0  0  0  0  0  0  0  0  0
   12.0871   20.8756   13.9247 C   0  0  0  0  0  0  0  0  0  0  0  0
   13.0874   20.1726   13.2662 C   0  0  0  0  0  0  0  0  0  0  0  0
   14.4046   20.5898   13.4058 C   0  0  0  0  0  0  0  0  0  0  0  0
   14.7245   21.7060   14.1832 C   0  0  0  0  0  0  0  0  0  0  0  0
   13.7410   22.4047   14.8792 C   0  0  0  0  0  0  0  0  0  0  0  0
   23.1288   28.9470   16.0837 H   0  0  0  0  0  0  0  0  0  0  0  0
   23.4977   28.4339   14.4041 H   0  0  0  0  0  0  0  0  0  0  0  0
   21.1586   24.7025   16.0937 H   0  0  0  0  0  0  0  0  0  0  0  0
   17.6046   26.5134   14.4690 H   0  0  0  0  0  0  0  0  0  0  0  0
   18.8762   28.5982   13.9935 H   0  0  0  0  0  0  0  0  0  0  0  0
   18.6803   25.7590   18.5193 H   0  0  0  0  0  0  0  0  0  0  0  0
   19.6868   24.3585   18.0853 H   0  0  0  0  0  0  0  0  0  0  0  0
   17.3728   24.3477   20.0750 H   0  0  0  0  0  0  0  0  0  0  0  0
   18.1335   22.0600   20.6308 H   0  0  0  0  0  0  0  0  0  0  0  0
   19.3429   22.1318   19.3263 H   0  0  0  0  0  0  0  0  0  0  0  0
   17.6065   22.1502   18.9354 H   0  0  0  0  0  0  0  0  0  0  0  0
   19.4210   25.5489   20.8421 H   0  0  0  0  0  0  0  0  0  0  0  0
   20.4007   24.1118   20.4640 H   0  0  0  0  0  0  0  0  0  0  0  0
   19.1703   24.0373   21.7481 H   0  0  0  0  0  0  0  0  0  0  0  0
   16.1816   25.4025   16.3987 H   0  0  0  0  0  0  0  0  0  0  0  0
   16.5977   25.9541   18.0171 H   0  0  0  0  0  0  0  0  0  0  0  0
   15.7205   23.7429   18.9020 H   0  0  0  0  0  0  0  0  0  0  0  0
   13.8623   25.3908   17.5076 H   0  0  0  0  0  0  0  0  0  0  0  0
   15.8014   22.5184   16.7021 H   0  0  0  0  0  0  0  0  0  0  0  0
   13.1182   22.4920   18.0341 H   0  0  0  0  0  0  0  0  0  0  0  0
   14.5227   18.5983   19.0285 H   0  0  0  0  0  0  0  0  0  0  0  0
   13.1266   19.4986   21.1741 H   0  0  0  0  0  0  0  0  0  0  0  0
   13.1903   17.7348   20.8856 H   0  0  0  0  0  0  0  0  0  0  0  0
   10.7887   17.1721   19.0146 H   0  0  0  0  0  0  0  0  0  0  0  0
   11.3529   20.6612   17.5095 H   0  0  0  0  0  0  0  0  0  0  0  0
   10.3508   19.8065   16.3186 H   0  0  0  0  0  0  0  0  0  0  0  0
   13.0185   19.3277   16.4225 H   0  0  0  0  0  0  0  0  0  0  0  0
   11.8820   17.9948   16.1440 H   0  0  0  0  0  0  0  0  0  0  0  0
   12.9189   17.1393   18.0669 H   0  0  0  0  0  0  0  0  0  0  0  0
   14.7655   24.2537   15.2240 H   0  0  0  0  0  0  0  0  0  0  0  0
   13.2381   24.0932   16.1025 H   0  0  0  0  0  0  0  0  0  0  0  0
   11.6222   22.4864   15.2659 H   0  0  0  0  0  0  0  0  0  0  0  0
   11.0495   20.5704   13.8146 H   0  0  0  0  0  0  0  0  0  0  0  0
   12.8505   19.3107   12.6431 H   0  0  0  0  0  0  0  0  0  0  0  0
   15.2001   20.0482   12.9097 H   0  0  0  0  0  0  0  0  0  0  0  0
   15.7599   22.0293   14.2462 H   0  0  0  0  0  0  0  0  0  0  0  0
  1  2  1  0  0  0  0
  1  5  2  0  0  0  0
  1  9  1  0  0  0  0
  2  3  1  0  0  0  0
  3  4  1  0  0  0  0
  3 41  1  0  0  0  0
  3 42  1  0  0  0  0
  4  5  1  0  0  0  0
  5  6  1  0  0  0  0
  6  7  2  0  0  0  0
  6 43  1  0  0  0  0
  7  8  1  0  0  0  0
  7 10  1  0  0  0  0
  8  9  2  0  0  0  0
  8 44  1  0  0  0  0
  9 45  1  0  0  0  0
 10 11  2  0  0  0  0
 10 12  2  0  0  0  0
 10 13  1  0  0  0  0
 13 14  1  0  0  0  0
 13 18  1  0  0  0  0
 14 15  1  0  0  0  0
 14 46  1  0  0  0  0
 14 47  1  0  0  0  0
 15 16  1  0  0  0  0
 15 17  1  0  0  0  0
 15 48  1  0  0  0  0
 16 49  1  0  0  0  0
 16 50  1  0  0  0  0
 16 51  1  0  0  0  0
 17 52  1  0  0  0  0
 17 53  1  0  0  0  0
 17 54  1  0  0  0  0
 18 19  1  0  0  0  0
 18 55  1  0  0  0  0
 18 56  1  0  0  0  0
 19 20  1  0  0  0  0
 19 21  1  0  0  0  0
 19 57  1  1  0  0  0
 20 58  1  0  0  0  0
 21 22  1  0  0  0  0
 21 34  1  0  0  0  0
 21 59  1  6  0  0  0
 22 23  1  0  0  0  0
 22 60  1  0  0  0  0
 23 24  2  0  0  0  0
 23 25  1  0  0  0  0
 25 26  1  0  0  0  0
 26 27  1  0  0  0  0
 26 33  1  0  0  0  0
 26 61  1  6  0  0  0
 27 28  1  0  0  0  0
 27 62  1  0  0  0  0
 27 63  1  0  0  0  0
 28 29  1  0  0  0  0
 29 30  1  0  0  0  0
 29 33  1  0  0  0  0
 29 64  1  1  0  0  0
 30 31  1  0  0  0  0
 31 32  1  0  0  0  0
 31 65  1  0  0  0  0
 31 66  1  0  0  0  0
 32 33  1  0  0  0  0
 32 67  1  0  0  0  0
 32 68  1  0  0  0  0
 33 69  1  6  0  0  0
 34 40  1  0  0  0  0
 34 70  1  0  0  0  0
 34 71  1  0  0  0  0
 35 36  2  0  0  0  0
 35 40  1  0  0  0  0
 35 72  1  0  0  0  0
 36 37  1  0  0  0  0
 36 73  1  0  0  0  0
 37 38  2  0  0  0  0
 37 74  1  0  0  0  0
 38 39  1  0  0  0  0
 38 75  1  0  0  0  0
 39 40  2  0  0  0  0
 39 76  1  0  0  0  0
M  END
$$$$
