075
 OpenBabel04051918463D

101106  0  0  1  0  0  0  0  0999 V2000
   10.0309  -19.7313  -17.0947 O   0  0  0  0  0  0  0  0  0  0  0  0
   10.0829  -18.7258  -17.8326 C   0  0  0  0  0  0  0  0  0  0  0  0
    9.3593  -17.5980  -17.6001 N   0  0  0  0  0  0  0  0  0  0  0  0
    8.5097  -17.4564  -16.4533 C   0  0  1  0  0  0  0  0  0  0  0  0
    9.1611  -16.8358  -15.2609 C   0  0  0  0  0  0  0  0  0  0  0  0
   10.4133  -17.1134  -14.7295 C   0  0  0  0  0  0  0  0  0  0  0  0
   10.8069  -16.4158  -13.5931 C   0  0  0  0  0  0  0  0  0  0  0  0
    9.9445  -15.4682  -13.0170 C   0  0  0  0  0  0  0  0  0  0  0  0
    8.6731  -15.2158  -13.5447 C   0  0  0  0  0  0  0  0  0  0  0  0
    8.2885  -15.9099  -14.6707 C   0  0  0  0  0  0  0  0  0  0  0  0
    6.9937  -15.8048  -15.4272 C   0  0  0  0  0  0  0  0  0  0  0  0
    7.3917  -16.4399  -16.7611 C   0  0  1  0  0  0  0  0  0  0  0  0
    7.8645  -15.3784  -17.6222 O   0  0  0  0  0  0  0  0  0  0  0  0
   10.7957  -18.6817  -19.1676 C   0  0  2  0  0  0  0  0  0  0  0  0
    9.9185  -19.2322  -20.2998 C   0  0  0  0  0  0  0  0  0  0  0  0
   10.3162  -18.5565  -21.6033 C   0  0  0  0  0  0  0  0  0  0  0  0
    8.4131  -19.1102  -20.1379 C   0  0  0  0  0  0  0  0  0  0  0  0
   10.3475  -20.9950  -20.3798 S   0  0  0  0  0  0  0  0  0  0  0  0
   12.0102  -20.7281  -19.7698 C   0  0  0  0  0  0  0  0  0  0  0  0
   12.0330  -19.4379  -19.1013 N   0  0  0  0  0  0  0  0  0  0  0  0
   13.0960  -18.9055  -18.4061 C   0  0  0  0  0  0  0  0  0  0  0  0
   13.0244  -17.8369  -17.7975 O   0  0  0  0  0  0  0  0  0  0  0  0
   14.3955  -19.6742  -18.4881 C   0  0  1  0  0  0  0  0  0  0  0  0
   15.5242  -18.8090  -18.5827 O   0  0  0  0  0  0  0  0  0  0  0  0
   14.5323  -20.5800  -17.2723 C   0  0  2  0  0  0  0  0  0  0  0  0
   15.0556  -19.8187  -16.0543 C   0  0  0  0  0  0  0  0  0  0  0  0
   15.3323  -20.7899  -14.9417 C   0  0  0  0  0  0  0  0  0  0  0  0
   16.6585  -21.0593  -14.5843 C   0  0  0  0  0  0  0  0  0  0  0  0
   16.9268  -21.9823  -13.5875 C   0  0  0  0  0  0  0  0  0  0  0  0
   15.8737  -22.6379  -12.9520 C   0  0  0  0  0  0  0  0  0  0  0  0
   14.5520  -22.3910  -13.3212 C   0  0  0  0  0  0  0  0  0  0  0  0
   14.2773  -21.4696  -14.3225 C   0  0  0  0  0  0  0  0  0  0  0  0
   15.5080  -21.6176  -17.6293 N   0  0  0  0  0  0  0  0  0  0  0  0
   15.1581  -22.8495  -18.1018 C   0  0  0  0  0  0  0  0  0  0  0  0
   13.9887  -23.2020  -18.2064 O   0  0  0  0  0  0  0  0  0  0  0  0
   16.3467  -23.7396  -18.4559 C   0  0  2  0  0  0  0  0  0  0  0  0
   15.9017  -24.9597  -19.2244 C   0  0  0  0  0  0  0  0  0  0  0  0
   17.1912  -25.6728  -20.2226 S   0  0  0  0  0  0  0  0  0  0  0  0
   18.0163  -24.6133  -20.7585 O   0  0  0  0  0  0  0  0  0  0  0  0
   18.1679  -26.6170  -19.0797 C   0  0  0  0  0  0  0  0  0  0  0  0
   16.5704  -26.6222  -21.1128 O   0  0  0  0  0  0  0  0  0  0  0  0
   16.9778  -24.1536  -17.2122 N   0  0  0  0  0  0  0  0  0  0  0  0
   18.2862  -23.8444  -16.9544 C   0  0  0  0  0  0  0  0  0  0  0  0
   18.9729  -23.2365  -17.7690 O   0  0  0  0  0  0  0  0  0  0  0  0
   18.8832  -24.3722  -15.6689 C   0  0  0  0  0  0  0  0  0  0  0  0
   17.9022  -24.7967  -14.7350 O   0  0  0  0  0  0  0  0  0  0  0  0
   18.3671  -25.1584  -13.4911 C   0  0  0  0  0  0  0  0  0  0  0  0
   17.4745  -25.8370  -12.6368 C   0  0  0  0  0  0  0  0  0  0  0  0
   16.1627  -26.1441  -13.0178 C   0  0  0  0  0  0  0  0  0  0  0  0
   17.9052  -26.2209  -11.3522 C   0  0  0  0  0  0  0  0  0  0  0  0
   17.0037  -26.9012  -10.5350 C   0  0  0  0  0  0  0  0  0  0  0  0
   15.7353  -27.2097  -10.9003 N   0  0  0  0  0  0  0  0  0  0  0  0
   15.3414  -26.8191  -12.1324 C   0  0  0  0  0  0  0  0  0  0  0  0
   19.2025  -25.9229  -10.9233 C   0  0  0  0  0  0  0  0  0  0  0  0
   20.0701  -25.2353  -11.7640 C   0  0  0  0  0  0  0  0  0  0  0  0
   19.6515  -24.8604  -13.0370 C   0  0  0  0  0  0  0  0  0  0  0  0
    9.5096  -16.7953  -18.1908 H   0  0  0  0  0  0  0  0  0  0  0  0
    8.1032  -18.4286  -16.1554 H   0  0  0  0  0  0  0  0  0  0  0  0
   11.0667  -17.8459  -15.1965 H   0  0  0  0  0  0  0  0  0  0  0  0
   11.7835  -16.6025  -13.1502 H   0  0  0  0  0  0  0  0  0  0  0  0
   10.2741  -14.9188  -12.1414 H   0  0  0  0  0  0  0  0  0  0  0  0
    8.0145  -14.4833  -13.0915 H   0  0  0  0  0  0  0  0  0  0  0  0
    6.6833  -14.7639  -15.5593 H   0  0  0  0  0  0  0  0  0  0  0  0
    6.1965  -16.3785  -14.9443 H   0  0  0  0  0  0  0  0  0  0  0  0
    6.5557  -16.9373  -17.2603 H   0  0  0  0  0  0  0  0  0  0  0  0
    8.1198  -15.7562  -18.4763 H   0  0  0  0  0  0  0  0  0  0  0  0
   11.0445  -17.6310  -19.3649 H   0  0  0  0  0  0  0  0  0  0  0  0
    9.7083  -18.9320  -22.4308 H   0  0  0  0  0  0  0  0  0  0  0  0
   11.3730  -18.7234  -21.8297 H   0  0  0  0  0  0  0  0  0  0  0  0
   10.1497  -17.4746  -21.5190 H   0  0  0  0  0  0  0  0  0  0  0  0
    8.0678  -19.5979  -19.2230 H   0  0  0  0  0  0  0  0  0  0  0  0
    7.8970  -19.5784  -20.9850 H   0  0  0  0  0  0  0  0  0  0  0  0
    8.1200  -18.0556  -20.1082 H   0  0  0  0  0  0  0  0  0  0  0  0
   12.7029  -20.7076  -20.6205 H   0  0  0  0  0  0  0  0  0  0  0  0
   12.2931  -21.5294  -19.0886 H   0  0  0  0  0  0  0  0  0  0  0  0
   14.3975  -20.2922  -19.3886 H   0  0  0  0  0  0  0  0  0  0  0  0
   15.4021  -18.2500  -19.3681 H   0  0  0  0  0  0  0  0  0  0  0  0
   13.5680  -21.0503  -17.0223 H   0  0  0  0  0  0  0  0  0  0  0  0
   14.3376  -19.0686  -15.7100 H   0  0  0  0  0  0  0  0  0  0  0  0
   15.9882  -19.2981  -16.3091 H   0  0  0  0  0  0  0  0  0  0  0  0
   17.4749  -20.5414  -15.0838 H   0  0  0  0  0  0  0  0  0  0  0  0
   17.9536  -22.1923  -13.3039 H   0  0  0  0  0  0  0  0  0  0  0  0
   16.0846  -23.3503  -12.1611 H   0  0  0  0  0  0  0  0  0  0  0  0
   13.7403  -22.9081  -12.8203 H   0  0  0  0  0  0  0  0  0  0  0  0
   13.2467  -21.2799  -14.6219 H   0  0  0  0  0  0  0  0  0  0  0  0
   16.4876  -21.3606  -17.5781 H   0  0  0  0  0  0  0  0  0  0  0  0
   17.0243  -23.1172  -19.0529 H   0  0  0  0  0  0  0  0  0  0  0  0
   15.1193  -24.7097  -19.9435 H   0  0  0  0  0  0  0  0  0  0  0  0
   15.5442  -25.7360  -18.5408 H   0  0  0  0  0  0  0  0  0  0  0  0
   18.9722  -27.0663  -19.6641 H   0  0  0  0  0  0  0  0  0  0  0  0
   17.5390  -27.3893  -18.6305 H   0  0  0  0  0  0  0  0  0  0  0  0
   18.5856  -25.9657  -18.3156 H   0  0  0  0  0  0  0  0  0  0  0  0
   16.4419  -24.6622  -16.5146 H   0  0  0  0  0  0  0  0  0  0  0  0
   19.4766  -23.5354  -15.2847 H   0  0  0  0  0  0  0  0  0  0  0  0
   19.5352  -25.2146  -15.9334 H   0  0  0  0  0  0  0  0  0  0  0  0
   15.7885  -25.8453  -13.9889 H   0  0  0  0  0  0  0  0  0  0  0  0
   17.3040  -27.2188   -9.5371 H   0  0  0  0  0  0  0  0  0  0  0  0
   14.3192  -27.0629  -12.4169 H   0  0  0  0  0  0  0  0  0  0  0  0
   19.5344  -26.2296   -9.9353 H   0  0  0  0  0  0  0  0  0  0  0  0
   21.0741  -24.9941  -11.4285 H   0  0  0  0  0  0  0  0  0  0  0  0
   20.3490  -24.3258  -13.6680 H   0  0  0  0  0  0  0  0  0  0  0  0
  1  2  2  0  0  0  0
  2  3  1  0  0  0  0
  2 14  1  0  0  0  0
  3  4  1  0  0  0  0
  3 57  1  0  0  0  0
  4  5  1  0  0  0  0
  4 12  1  0  0  0  0
  4 58  1  1  0  0  0
  5  6  2  0  0  0  0
  5 10  1  0  0  0  0
  6  7  1  0  0  0  0
  6 59  1  0  0  0  0
  7  8  2  0  0  0  0
  7 60  1  0  0  0  0
  8  9  1  0  0  0  0
  8 61  1  0  0  0  0
  9 10  2  0  0  0  0
  9 62  1  0  0  0  0
 10 11  1  0  0  0  0
 11 12  1  0  0  0  0
 11 63  1  0  0  0  0
 11 64  1  0  0  0  0
 12 13  1  0  0  0  0
 12 65  1  6  0  0  0
 13 66  1  0  0  0  0
 14 15  1  0  0  0  0
 14 20  1  0  0  0  0
 14 67  1  6  0  0  0
 15 16  1  0  0  0  0
 15 17  1  0  0  0  0
 15 18  1  0  0  0  0
 16 68  1  0  0  0  0
 16 69  1  0  0  0  0
 16 70  1  0  0  0  0
 17 71  1  0  0  0  0
 17 72  1  0  0  0  0
 17 73  1  0  0  0  0
 18 19  1  0  0  0  0
 19 20  1  0  0  0  0
 19 74  1  0  0  0  0
 19 75  1  0  0  0  0
 20 21  1  0  0  0  0
 21 22  2  0  0  0  0
 21 23  1  0  0  0  0
 23 24  1  0  0  0  0
 23 25  1  0  0  0  0
 23 76  1  6  0  0  0
 24 77  1  0  0  0  0
 25 26  1  0  0  0  0
 25 33  1  0  0  0  0
 25 78  1  1  0  0  0
 26 27  1  0  0  0  0
 26 79  1  0  0  0  0
 26 80  1  0  0  0  0
 27 28  2  0  0  0  0
 27 32  1  0  0  0  0
 28 29  1  0  0  0  0
 28 81  1  0  0  0  0
 29 30  2  0  0  0  0
 29 82  1  0  0  0  0
 30 31  1  0  0  0  0
 30 83  1  0  0  0  0
 31 32  2  0  0  0  0
 31 84  1  0  0  0  0
 32 85  1  0  0  0  0
 33 34  1  0  0  0  0
 33 86  1  0  0  0  0
 34 35  2  0  0  0  0
 34 36  1  0  0  0  0
 36 37  1  0  0  0  0
 36 42  1  0  0  0  0
 36 87  1  6  0  0  0
 37 38  1  0  0  0  0
 37 88  1  0  0  0  0
 37 89  1  0  0  0  0
 38 39  2  0  0  0  0
 38 40  1  0  0  0  0
 38 41  2  0  0  0  0
 40 90  1  0  0  0  0
 40 91  1  0  0  0  0
 40 92  1  0  0  0  0
 42 43  1  0  0  0  0
 42 93  1  0  0  0  0
 43 44  2  0  0  0  0
 43 45  1  0  0  0  0
 45 46  1  0  0  0  0
 45 94  1  0  0  0  0
 45 95  1  0  0  0  0
 46 47  1  0  0  0  0
 47 48  2  0  0  0  0
 47 56  1  0  0  0  0
 48 49  1  0  0  0  0
 48 50  1  0  0  0  0
 49 53  2  0  0  0  0
 49 96  1  0  0  0  0
 50 51  1  0  0  0  0
 50 54  2  0  0  0  0
 51 52  2  0  0  0  0
 51 97  1  0  0  0  0
 52 53  1  0  0  0  0
 53 98  1  0  0  0  0
 54 55  1  0  0  0  0
 54 99  1  0  0  0  0
 55 56  2  0  0  0  0
 55100  1  0  0  0  0
 56101  1  0  0  0  0
M  END
$$$$
