0Q4
 OpenBabel04051917203D

130130  0  0  1  0  0  0  0  0999 V2000
   23.5506   27.5718   17.1667 N   0  3  0  0  0  0  0  0  0  0  0  0
   22.6082   26.5282   17.6430 C   0  0  2  0  0  0  0  0  0  0  0  0
   21.1847   26.8015   17.2270 C   0  0  0  0  0  0  0  0  0  0  0  0
   20.6568   27.9200   17.4008 O   0  0  0  0  0  0  0  0  0  0  0  0
   22.7228   26.4701   19.1702 C   0  0  0  0  0  0  0  0  0  0  0  0
   22.8211   25.0836   19.8084 C   0  0  0  0  0  0  0  0  0  0  0  0
   23.7683   24.0708   19.1808 C   0  0  0  0  0  0  0  0  0  0  0  0
   24.9703   23.8315   19.9668 N   0  0  0  0  0  0  0  0  0  0  0  0
   26.2508   23.9271   19.6045 C   0  0  0  0  0  0  0  0  0  0  0  0
   26.6248   24.4109   18.4157 N   0  0  0  0  0  0  0  0  0  0  0  0
   27.1653   23.5660   20.4969 N   0  0  0  0  0  0  0  0  0  0  0  0
   20.5957   25.7459   16.6069 N   0  0  0  0  0  0  0  0  0  0  0  0
   19.1971   25.7639   16.2134 C   0  0  2  0  0  0  0  0  0  0  0  0
   18.5795   24.5097   16.8196 C   0  0  0  0  0  0  0  0  0  0  0  0
   18.7664   23.3755   16.3876 O   0  0  0  0  0  0  0  0  0  0  0  0
   19.0133   25.7386   14.7027 C   0  0  0  0  0  0  0  0  0  0  0  0
   17.5327   25.5813   14.3691 C   0  0  0  0  0  0  0  0  0  0  0  0
   19.5312   27.0254   14.0768 C   0  0  0  0  0  0  0  0  0  0  0  0
   17.8493   24.7570   17.9470 N   0  0  0  0  0  0  0  0  0  0  0  0
   17.2837   23.6879   18.7638 C   0  0  2  0  0  0  0  0  0  0  0  0
   15.7448   23.6702   18.6483 C   0  0  0  0  0  0  0  0  0  0  0  0
   17.7476   23.8829   20.2021 C   0  0  0  0  0  0  0  0  0  0  0  0
   19.2460   23.6027   20.4020 C   0  0  0  0  0  0  0  0  0  0  0  0
   19.6608   23.9182   21.8329 C   0  0  0  0  0  0  0  0  0  0  0  0
   19.5875   22.1484   20.1132 C   0  0  0  0  0  0  0  0  0  0  0  0
   15.3949   23.6131   17.2075 N   0  3  0  0  0  0  0  0  0  0  0  0
   14.1144   22.9242   16.7845 C   0  0  2  0  0  0  0  0  0  0  0  0
   14.1200   21.4789   17.2331 C   0  0  0  0  0  0  0  0  0  0  0  0
   15.1864   20.8407   17.2157 O   0  0  0  0  0  0  0  0  0  0  0  0
   14.0826   22.9873   15.2495 C   0  0  0  0  0  0  0  0  0  0  0  0
   13.2808   21.9034   14.5940 C   0  0  0  0  0  0  0  0  0  0  0  0
   11.9008   21.8316   14.7866 C   0  0  0  0  0  0  0  0  0  0  0  0
   13.9018   20.9179   13.8257 C   0  0  0  0  0  0  0  0  0  0  0  0
   11.1598   20.7964   14.2193 C   0  0  0  0  0  0  0  0  0  0  0  0
   13.1564   19.8912   13.2473 C   0  0  0  0  0  0  0  0  0  0  0  0
   11.7799   19.8320   13.4324 C   0  0  0  0  0  0  0  0  0  0  0  0
   12.9346   20.9956   17.6665 N   0  0  0  0  0  0  0  0  0  0  0  0
   12.8061   19.5844   18.0370 C   0  0  2  0  0  0  0  0  0  0  0  0
   11.3867   19.1723   17.7328 C   0  0  0  0  0  0  0  0  0  0  0  0
   10.4388   19.9429   17.8444 O   0  0  0  0  0  0  0  0  0  0  0  0
   13.1335   19.4456   19.5142 C   0  0  0  0  0  0  0  0  0  0  0  0
   13.1039   18.0216   20.0635 C   0  0  0  0  0  0  0  0  0  0  0  0
   11.6993   17.5640   20.5011 C   0  0  0  0  0  0  0  0  0  0  0  0
   10.8770   18.4920   20.7109 O   0  0  0  0  0  0  0  0  0  0  0  0
   11.5717   16.3236   20.5742 O   0  0  0  0  0  0  0  0  0  0  0  0
   11.2634   17.8855   17.2639 N   0  0  0  0  0  0  0  0  0  0  0  0
    9.9446   17.3077   17.1802 C   0  0  2  0  0  0  0  0  0  0  0  0
    9.9821   15.7766   17.3024 C   0  0  0  0  0  0  0  0  0  0  0  0
   10.9286   15.1033   16.9621 O   0  0  0  0  0  0  0  0  0  0  0  0
    9.2949   17.7028   15.8618 C   0  0  0  0  0  0  0  0  0  0  0  0
    8.7216   15.3154   17.6526 N   0  0  0  0  0  0  0  0  0  0  0  0
    8.1175   14.0205   17.4223 C   0  0  2  0  0  0  0  0  0  0  0  0
    8.9164   12.8244   17.9381 C   0  0  0  0  0  0  0  0  0  0  0  0
    8.5677   12.1960   18.9275 O   0  0  0  0  0  0  0  0  0  0  0  0
    7.7543   13.8337   15.9533 C   0  0  0  0  0  0  0  0  0  0  0  0
    6.2655   13.9318   15.6444 C   0  0  0  0  0  0  0  0  0  0  0  0
    5.5147   14.9679   16.4704 C   0  0  0  0  0  0  0  0  0  0  0  0
    4.2163   15.3679   15.8056 C   0  0  0  0  0  0  0  0  0  0  0  0
    9.9678   12.4609   17.1310 N   0  0  0  0  0  0  0  0  0  0  0  0
   24.5054   27.3861   17.4848 H   0  0  0  0  0  0  0  0  0  0  0  0
   23.5475   27.6359   16.1397 H   0  0  0  0  0  0  0  0  0  0  0  0
   22.9375   25.6131   17.1678 H   0  0  0  0  0  0  0  0  0  0  0  0
   21.8371   26.9523   19.6080 H   0  0  0  0  0  0  0  0  0  0  0  0
   23.5992   27.0368   19.4970 H   0  0  0  0  0  0  0  0  0  0  0  0
   21.8248   24.6480   19.7633 H   0  0  0  0  0  0  0  0  0  0  0  0
   23.0810   25.2334   20.8614 H   0  0  0  0  0  0  0  0  0  0  0  0
   24.0557   24.3703   18.1789 H   0  0  0  0  0  0  0  0  0  0  0  0
   23.2456   23.1085   19.1328 H   0  0  0  0  0  0  0  0  0  0  0  0
   24.8337   23.4312   20.8923 H   0  0  0  0  0  0  0  0  0  0  0  0
   27.6060   24.4781   18.1634 H   0  0  0  0  0  0  0  0  0  0  0  0
   26.8888   23.1978   21.4014 H   0  0  0  0  0  0  0  0  0  0  0  0
   28.1619   23.6232   20.3222 H   0  0  0  0  0  0  0  0  0  0  0  0
   21.1115   24.8920   16.4211 H   0  0  0  0  0  0  0  0  0  0  0  0
   18.7055   26.6422   16.6385 H   0  0  0  0  0  0  0  0  0  0  0  0
   19.5626   24.8910   14.2736 H   0  0  0  0  0  0  0  0  0  0  0  0
   17.3817   25.5816   13.2890 H   0  0  0  0  0  0  0  0  0  0  0  0
   16.9481   26.3961   14.8117 H   0  0  0  0  0  0  0  0  0  0  0  0
   17.1438   24.6354   14.7597 H   0  0  0  0  0  0  0  0  0  0  0  0
   20.5926   27.1627   14.2983 H   0  0  0  0  0  0  0  0  0  0  0  0
   18.9813   27.8930   14.4586 H   0  0  0  0  0  0  0  0  0  0  0  0
   19.4101   26.9919   12.9904 H   0  0  0  0  0  0  0  0  0  0  0  0
   17.7551   25.7136   18.2772 H   0  0  0  0  0  0  0  0  0  0  0  0
   17.6304   22.7241   18.3752 H   0  0  0  0  0  0  0  0  0  0  0  0
   15.2993   24.6026   19.0095 H   0  0  0  0  0  0  0  0  0  0  0  0
   15.3255   22.7956   19.1385 H   0  0  0  0  0  0  0  0  0  0  0  0
   17.1700   23.2231   20.8468 H   0  0  0  0  0  0  0  0  0  0  0  0
   17.5551   24.9254   20.4820 H   0  0  0  0  0  0  0  0  0  0  0  0
   19.8215   24.2433   19.7289 H   0  0  0  0  0  0  0  0  0  0  0  0
   20.7261   23.7049   21.9742 H   0  0  0  0  0  0  0  0  0  0  0  0
   19.0927   23.3078   22.5430 H   0  0  0  0  0  0  0  0  0  0  0  0
   19.4881   24.9735   22.0604 H   0  0  0  0  0  0  0  0  0  0  0  0
   19.3162   21.8778   19.0925 H   0  0  0  0  0  0  0  0  0  0  0  0
   19.0529   21.4854   20.8027 H   0  0  0  0  0  0  0  0  0  0  0  0
   20.6610   21.9781   20.2264 H   0  0  0  0  0  0  0  0  0  0  0  0
   15.3733   24.5724   16.8501 H   0  0  0  0  0  0  0  0  0  0  0  0
   13.2877   23.4913   17.2228 H   0  0  0  0  0  0  0  0  0  0  0  0
   15.1103   22.9562   14.8594 H   0  0  0  0  0  0  0  0  0  0  0  0
   13.6680   23.9586   14.9563 H   0  0  0  0  0  0  0  0  0  0  0  0
   11.3922   22.5703   15.3950 H   0  0  0  0  0  0  0  0  0  0  0  0
   14.9759   20.9357   13.6628 H   0  0  0  0  0  0  0  0  0  0  0  0
   10.0878   20.7455   14.3933 H   0  0  0  0  0  0  0  0  0  0  0  0
   13.6529   19.1333   12.6468 H   0  0  0  0  0  0  0  0  0  0  0  0
   11.1954   19.0416   12.9666 H   0  0  0  0  0  0  0  0  0  0  0  0
   12.0896   21.5682   17.7310 H   0  0  0  0  0  0  0  0  0  0  0  0
   13.5093   19.0066   17.4222 H   0  0  0  0  0  0  0  0  0  0  0  0
   12.4338   20.0728   20.0743 H   0  0  0  0  0  0  0  0  0  0  0  0
   14.1348   19.8601   19.6752 H   0  0  0  0  0  0  0  0  0  0  0  0
   13.7689   17.9947   20.9418 H   0  0  0  0  0  0  0  0  0  0  0  0
   13.5097   17.3260   19.3196 H   0  0  0  0  0  0  0  0  0  0  0  0
   12.0606   17.2778   17.1089 H   0  0  0  0  0  0  0  0  0  0  0  0
    9.3262   17.7067   17.9939 H   0  0  0  0  0  0  0  0  0  0  0  0
    8.2875   17.2767   15.7664 H   0  0  0  0  0  0  0  0  0  0  0  0
    9.8913   17.3453   15.0097 H   0  0  0  0  0  0  0  0  0  0  0  0
    9.2068   18.7921   15.7775 H   0  0  0  0  0  0  0  0  0  0  0  0
    8.1198   16.0119   18.0475 H   0  0  0  0  0  0  0  0  0  0  0  0
    7.2114   14.0515   18.0390 H   0  0  0  0  0  0  0  0  0  0  0  0
    8.0922   12.8516   15.6040 H   0  0  0  0  0  0  0  0  0  0  0  0
    8.2815   14.5854   15.3543 H   0  0  0  0  0  0  0  0  0  0  0  0
    5.8134   12.9475   15.8136 H   0  0  0  0  0  0  0  0  0  0  0  0
    6.1657   14.1690   14.5799 H   0  0  0  0  0  0  0  0  0  0  0  0
    6.1354   15.8583   16.6090 H   0  0  0  0  0  0  0  0  0  0  0  0
    5.2835   14.5484   17.4571 H   0  0  0  0  0  0  0  0  0  0  0  0
    3.6937   16.1068   16.4195 H   0  0  0  0  0  0  0  0  0  0  0  0
    3.5664   14.4984   15.6732 H   0  0  0  0  0  0  0  0  0  0  0  0
    4.4143   15.8108   14.8250 H   0  0  0  0  0  0  0  0  0  0  0  0
   10.5834   11.7053   17.3782 H   0  0  0  0  0  0  0  0  0  0  0  0
   10.2401   13.0304   16.3361 H   0  0  0  0  0  0  0  0  0  0  0  0
   23.2690   28.5017   17.5213 H   0  0  0  0  0  0  0  0  0  0  0  0
   25.9538   24.6477   17.7098 H   0  0  0  0  0  0  0  0  0  0  0  0
   16.1528   23.0783   16.7463 H   0  0  0  0  0  0  0  0  0  0  0  0
  1  2  1  0  0  0  0
  1 60  1  0  0  0  0
  1 61  1  0  0  0  0
  1128  1  0  0  0  0
  2  3  1  0  0  0  0
  2  5  1  0  0  0  0
  2 62  1  6  0  0  0
  3  4  2  0  0  0  0
  3 12  1  0  0  0  0
  5  6  1  0  0  0  0
  5 63  1  0  0  0  0
  5 64  1  0  0  0  0
  6  7  1  0  0  0  0
  6 65  1  0  0  0  0
  6 66  1  0  0  0  0
  7  8  1  0  0  0  0
  7 67  1  0  0  0  0
  7 68  1  0  0  0  0
  8  9  1  0  0  0  0
  8 69  1  0  0  0  0
  9 10  2  0  0  0  0
  9 11  1  0  0  0  0
 10 70  1  0  0  0  0
 10129  1  0  0  0  0
 11 71  1  0  0  0  0
 11 72  1  0  0  0  0
 12 13  1  0  0  0  0
 12 73  1  0  0  0  0
 13 14  1  0  0  0  0
 13 16  1  0  0  0  0
 13 74  1  1  0  0  0
 14 15  2  0  0  0  0
 14 19  1  0  0  0  0
 16 17  1  0  0  0  0
 16 18  1  0  0  0  0
 16 75  1  0  0  0  0
 17 76  1  0  0  0  0
 17 77  1  0  0  0  0
 17 78  1  0  0  0  0
 18 79  1  0  0  0  0
 18 80  1  0  0  0  0
 18 81  1  0  0  0  0
 19 20  1  0  0  0  0
 19 82  1  0  0  0  0
 20 21  1  0  0  0  0
 20 22  1  0  0  0  0
 20 83  1  6  0  0  0
 21 26  1  0  0  0  0
 21 84  1  0  0  0  0
 21 85  1  0  0  0  0
 22 23  1  0  0  0  0
 22 86  1  0  0  0  0
 22 87  1  0  0  0  0
 23 24  1  0  0  0  0
 23 25  1  0  0  0  0
 23 88  1  0  0  0  0
 24 89  1  0  0  0  0
 24 90  1  0  0  0  0
 24 91  1  0  0  0  0
 25 92  1  0  0  0  0
 25 93  1  0  0  0  0
 25 94  1  0  0  0  0
 26 27  1  0  0  0  0
 26 95  1  0  0  0  0
 26130  1  0  0  0  0
 27 28  1  0  0  0  0
 27 30  1  0  0  0  0
 27 96  1  1  0  0  0
 28 29  2  0  0  0  0
 28 37  1  0  0  0  0
 30 31  1  0  0  0  0
 30 97  1  0  0  0  0
 30 98  1  0  0  0  0
 31 32  2  0  0  0  0
 31 33  1  0  0  0  0
 32 34  1  0  0  0  0
 32 99  1  0  0  0  0
 33 35  2  0  0  0  0
 33100  1  0  0  0  0
 34 36  2  0  0  0  0
 34101  1  0  0  0  0
 35 36  1  0  0  0  0
 35102  1  0  0  0  0
 36103  1  0  0  0  0
 37 38  1  0  0  0  0
 37104  1  0  0  0  0
 38 39  1  0  0  0  0
 38 41  1  0  0  0  0
 38105  1  6  0  0  0
 39 40  2  0  0  0  0
 39 46  1  0  0  0  0
 41 42  1  0  0  0  0
 41106  1  0  0  0  0
 41107  1  0  0  0  0
 42 43  1  0  0  0  0
 42108  1  0  0  0  0
 42109  1  0  0  0  0
 43 44  2  0  0  0  0
 43 45  1  0  0  0  0
 46 47  1  0  0  0  0
 46110  1  0  0  0  0
 47 48  1  0  0  0  0
 47 50  1  0  0  0  0
 47111  1  1  0  0  0
 48 49  2  0  0  0  0
 48 51  1  0  0  0  0
 50112  1  0  0  0  0
 50113  1  0  0  0  0
 50114  1  0  0  0  0
 51 52  1  0  0  0  0
 51115  1  0  0  0  0
 52 53  1  0  0  0  0
 52 55  1  0  0  0  0
 52116  1  1  0  0  0
 53 54  2  0  0  0  0
 53 59  1  0  0  0  0
 55 56  1  0  0  0  0
 55117  1  0  0  0  0
 55118  1  0  0  0  0
 56 57  1  0  0  0  0
 56119  1  0  0  0  0
 56120  1  0  0  0  0
 57 58  1  0  0  0  0
 57121  1  0  0  0  0
 57122  1  0  0  0  0
 58123  1  0  0  0  0
 58124  1  0  0  0  0
 58125  1  0  0  0  0
 59126  1  0  0  0  0
 59127  1  0  0  0  0
M  CHG  2   1   1  26   1
M  END
$$$$
