10U
 OpenBabel04051920533D

 58 60  0  0  1  0  0  0  0  0999 V2000
  -28.7034    0.8729   15.6757 N   0  0  0  0  0  0  0  0  0  0  0  0
  -28.4832    0.8522   17.0191 C   0  0  0  0  0  0  0  0  0  0  0  0
  -27.3894    0.6053   17.5371 O   0  0  0  0  0  0  0  0  0  0  0  0
  -29.6889    1.0708   17.9432 C   0  0  0  0  0  0  0  0  0  0  0  0
  -29.9815    1.1199   15.0368 C   0  0  0  0  0  0  0  0  0  0  0  0
  -29.7105    1.1066   13.5489 C   0  0  0  0  0  0  0  0  0  0  0  0
  -28.4048    0.3338   13.3906 C   0  0  0  0  0  0  0  0  0  0  0  0
  -27.6605    0.5164   14.7151 C   0  0  1  0  0  0  0  0  0  0  0  0
  -26.5527    1.5995   14.6124 C   0  0  0  0  0  0  0  0  0  0  0  0
  -25.3882    1.1464   14.0271 N   0  0  0  0  0  0  0  0  0  0  0  0
  -24.2742    2.0302   13.7769 C   0  0  0  0  0  0  0  0  0  0  0  0
  -23.1374    1.8342   14.7601 C   0  0  0  0  0  0  0  0  0  0  0  0
  -23.2687    2.2397   16.0922 C   0  0  0  0  0  0  0  0  0  0  0  0
  -22.2008    2.1081   16.9909 C   0  0  0  0  0  0  0  0  0  0  0  0
  -20.9690    1.5689   16.5799 C   0  0  0  0  0  0  0  0  0  0  0  0
  -19.8363    1.4348   17.5229 C   0  0  0  0  0  0  0  0  0  0  0  0
  -19.6417    2.3442   18.4537 N   0  0  0  0  0  0  0  0  0  0  0  0
  -19.0285    0.3999   17.4340 N   0  0  0  0  0  0  0  0  0  0  0  0
  -20.8466    1.1652   15.2396 C   0  0  0  0  0  0  0  0  0  0  0  0
  -21.9162    1.2896   14.3451 C   0  0  0  0  0  0  0  0  0  0  0  0
  -26.7239    2.7456   14.9986 O   0  0  0  0  0  0  0  0  0  0  0  0
  -29.3909    0.4254   19.2701 N   0  3  0  0  0  0  0  0  0  0  0  0
  -30.0292   -0.8745   19.6135 C   0  0  0  0  0  0  0  0  0  0  0  0
  -29.0866   -1.6525   20.5197 C   0  0  0  0  0  0  0  0  0  0  0  0
  -29.6098   -3.0735   20.4305 C   0  0  0  0  0  0  0  0  0  0  0  0
  -30.0383   -3.2336   18.9774 C   0  0  0  0  0  0  0  0  0  0  0  0
  -30.3070   -1.8218   18.4445 C   0  0  0  0  0  0  0  0  0  0  0  0
  -30.6099    0.6371   17.5536 H   0  0  0  0  0  0  0  0  0  0  0  0
  -29.8179    2.1415   18.1246 H   0  0  0  0  0  0  0  0  0  0  0  0
  -30.3894    2.0754   15.3836 H   0  0  0  0  0  0  0  0  0  0  0  0
  -30.6681    0.3177   15.3257 H   0  0  0  0  0  0  0  0  0  0  0  0
  -29.5990    2.1311   13.1779 H   0  0  0  0  0  0  0  0  0  0  0  0
  -30.5368    0.6404   13.0008 H   0  0  0  0  0  0  0  0  0  0  0  0
  -27.8429    0.6843   12.5163 H   0  0  0  0  0  0  0  0  0  0  0  0
  -28.6283   -0.7293   13.2390 H   0  0  0  0  0  0  0  0  0  0  0  0
  -27.1902   -0.4182   15.0381 H   0  0  0  0  0  0  0  0  0  0  0  0
  -25.2817    0.1698   13.7864 H   0  0  0  0  0  0  0  0  0  0  0  0
  -24.5900    3.0812   13.7889 H   0  0  0  0  0  0  0  0  0  0  0  0
  -23.9272    1.8122   12.7544 H   0  0  0  0  0  0  0  0  0  0  0  0
  -24.2080    2.6783   16.4345 H   0  0  0  0  0  0  0  0  0  0  0  0
  -22.3596    2.4275   18.0184 H   0  0  0  0  0  0  0  0  0  0  0  0
  -18.8805    2.2886   19.1166 H   0  0  0  0  0  0  0  0  0  0  0  0
  -19.1846   -0.3204   16.7373 H   0  0  0  0  0  0  0  0  0  0  0  0
  -18.2381    0.2725   18.0512 H   0  0  0  0  0  0  0  0  0  0  0  0
  -19.9078    0.7727   14.8548 H   0  0  0  0  0  0  0  0  0  0  0  0
  -21.7779    0.9830   13.3092 H   0  0  0  0  0  0  0  0  0  0  0  0
  -28.3573    0.3169   19.2662 H   0  0  0  0  0  0  0  0  0  0  0  0
  -30.9680   -0.6345   20.1262 H   0  0  0  0  0  0  0  0  0  0  0  0
  -29.0915   -1.2703   21.5443 H   0  0  0  0  0  0  0  0  0  0  0  0
  -28.0547   -1.6187   20.1471 H   0  0  0  0  0  0  0  0  0  0  0  0
  -30.4718   -3.1996   21.0948 H   0  0  0  0  0  0  0  0  0  0  0  0
  -28.8497   -3.8065   20.7177 H   0  0  0  0  0  0  0  0  0  0  0  0
  -30.9183   -3.8793   18.8941 H   0  0  0  0  0  0  0  0  0  0  0  0
  -29.2362   -3.7008   18.3921 H   0  0  0  0  0  0  0  0  0  0  0  0
  -29.6819   -1.6391   17.5653 H   0  0  0  0  0  0  0  0  0  0  0  0
  -31.3524   -1.7351   18.1229 H   0  0  0  0  0  0  0  0  0  0  0  0
  -20.2350    3.1666   18.5059 H   0  0  0  0  0  0  0  0  0  0  0  0
  -29.5761    1.1027   20.0201 H   0  0  0  0  0  0  0  0  0  0  0  0
  1  2  1  0  0  0  0
  1  5  1  0  0  0  0
  1  8  1  0  0  0  0
  2  3  2  0  0  0  0
  2  4  1  0  0  0  0
  4 22  1  0  0  0  0
  4 28  1  0  0  0  0
  4 29  1  0  0  0  0
  5  6  1  0  0  0  0
  5 30  1  0  0  0  0
  5 31  1  0  0  0  0
  6  7  1  0  0  0  0
  6 32  1  0  0  0  0
  6 33  1  0  0  0  0
  7  8  1  0  0  0  0
  7 34  1  0  0  0  0
  7 35  1  0  0  0  0
  8  9  1  0  0  0  0
  8 36  1  1  0  0  0
  9 10  1  0  0  0  0
  9 21  2  0  0  0  0
 10 11  1  0  0  0  0
 10 37  1  0  0  0  0
 11 12  1  0  0  0  0
 11 38  1  0  0  0  0
 11 39  1  0  0  0  0
 12 13  2  0  0  0  0
 12 20  1  0  0  0  0
 13 14  1  0  0  0  0
 13 40  1  0  0  0  0
 14 15  2  0  0  0  0
 14 41  1  0  0  0  0
 15 16  1  0  0  0  0
 15 19  1  0  0  0  0
 16 17  2  0  0  0  0
 16 18  1  0  0  0  0
 17 42  1  0  0  0  0
 17 57  1  0  0  0  0
 18 43  1  0  0  0  0
 18 44  1  0  0  0  0
 19 20  2  0  0  0  0
 19 45  1  0  0  0  0
 20 46  1  0  0  0  0
 22 23  1  0  0  0  0
 22 47  1  0  0  0  0
 22 58  1  0  0  0  0
 23 24  1  0  0  0  0
 23 27  1  0  0  0  0
 23 48  1  0  0  0  0
 24 25  1  0  0  0  0
 24 49  1  0  0  0  0
 24 50  1  0  0  0  0
 25 26  1  0  0  0  0
 25 51  1  0  0  0  0
 25 52  1  0  0  0  0
 26 27  1  0  0  0  0
 26 53  1  0  0  0  0
 26 54  1  0  0  0  0
 27 55  1  0  0  0  0
 27 56  1  0  0  0  0
M  CHG  1  22   1
M  END
$$$$
