12U
 OpenBabel04051920533D

 64 66  0  0  1  0  0  0  0  0999 V2000
   28.5795   -1.0675   16.7882 C   0  0  0  0  0  0  0  0  0  0  0  0
   27.5180   -0.7709   17.3005 O   0  0  0  0  0  0  0  0  0  0  0  0
   29.7918   -1.2928   17.6646 C   0  0  0  0  0  0  0  0  0  0  0  0
   29.5717   -0.5580   18.9293 N   0  3  0  0  0  0  0  0  0  0  0  0
   29.8729    0.8733   18.8345 C   0  0  0  0  0  0  0  0  0  0  0  0
   31.3139    1.1422   19.3012 C   0  0  0  0  0  0  0  0  0  0  0  0
   31.4218    1.2338   20.8250 C   0  0  0  0  0  0  0  0  0  0  0  0
   31.2527    2.6371   21.4037 C   0  0  0  0  0  0  0  0  0  0  0  0
   29.8735    3.2352   21.1775 C   0  0  0  0  0  0  0  0  0  0  0  0
   29.3255    2.9269   19.8151 C   0  0  0  0  0  0  0  0  0  0  0  0
   28.7681    1.5515   19.6074 C   0  0  0  0  0  0  0  0  0  0  0  0
   28.7724   -1.0918   15.4299 N   0  0  0  0  0  0  0  0  0  0  0  0
   27.6941   -0.7355   14.5741 C   0  0  2  0  0  0  0  0  0  0  0  0
   26.5937   -1.7863   14.5389 C   0  0  0  0  0  0  0  0  0  0  0  0
   26.7574   -2.9255   14.8844 O   0  0  0  0  0  0  0  0  0  0  0  0
   28.3252   -0.6047   13.1991 C   0  0  0  0  0  0  0  0  0  0  0  0
   29.6614   -1.3323   13.2735 C   0  0  0  0  0  0  0  0  0  0  0  0
   30.0222   -1.3327   14.7417 C   0  0  0  0  0  0  0  0  0  0  0  0
   25.4315   -1.3065   13.9649 N   0  0  0  0  0  0  0  0  0  0  0  0
   24.3040   -2.1607   13.6803 C   0  0  0  0  0  0  0  0  0  0  0  0
   23.1899   -1.9961   14.6972 C   0  0  0  0  0  0  0  0  0  0  0  0
   23.3011   -2.4076   16.0297 C   0  0  0  0  0  0  0  0  0  0  0  0
   22.2014   -2.2372   16.9010 C   0  0  0  0  0  0  0  0  0  0  0  0
   20.9864   -1.6689   16.5030 C   0  0  0  0  0  0  0  0  0  0  0  0
   19.8615   -1.4952   17.4647 C   0  0  0  0  0  0  0  0  0  0  0  0
   19.0134   -0.4917   17.2854 N   0  0  0  0  0  0  0  0  0  0  0  0
   19.7036   -2.3031   18.5064 N   0  0  0  0  0  0  0  0  0  0  0  0
   20.9118   -1.2360   15.1683 C   0  0  0  0  0  0  0  0  0  0  0  0
   22.0026   -1.4091   14.2988 C   0  0  0  0  0  0  0  0  0  0  0  0
   30.7228   -0.8995   17.2234 H   0  0  0  0  0  0  0  0  0  0  0  0
   29.8738   -2.3362   17.9155 H   0  0  0  0  0  0  0  0  0  0  0  0
   28.5615   -0.6611   19.1370 H   0  0  0  0  0  0  0  0  0  0  0  0
   29.7838    1.2304   17.8003 H   0  0  0  0  0  0  0  0  0  0  0  0
   31.7080    2.0594   18.8375 H   0  0  0  0  0  0  0  0  0  0  0  0
   31.9609    0.3502   18.9166 H   0  0  0  0  0  0  0  0  0  0  0  0
   32.4111    0.8769   21.1126 H   0  0  0  0  0  0  0  0  0  0  0  0
   30.6630    0.5894   21.2791 H   0  0  0  0  0  0  0  0  0  0  0  0
   32.0045    3.3093   20.9691 H   0  0  0  0  0  0  0  0  0  0  0  0
   31.4185    2.5988   22.4858 H   0  0  0  0  0  0  0  0  0  0  0  0
   29.9685    4.3250   21.2112 H   0  0  0  0  0  0  0  0  0  0  0  0
   29.1845    2.9044   21.9560 H   0  0  0  0  0  0  0  0  0  0  0  0
   30.1575    3.0816   19.1291 H   0  0  0  0  0  0  0  0  0  0  0  0
   28.5946    3.6550   19.5024 H   0  0  0  0  0  0  0  0  0  0  0  0
   28.4691    0.9984   20.5156 H   0  0  0  0  0  0  0  0  0  0  0  0
   27.8845    1.5971   18.9517 H   0  0  0  0  0  0  0  0  0  0  0  0
   27.2856    0.2134   14.9350 H   0  0  0  0  0  0  0  0  0  0  0  0
   28.4927    0.4558   12.9804 H   0  0  0  0  0  0  0  0  0  0  0  0
   27.6986   -1.0390   12.4181 H   0  0  0  0  0  0  0  0  0  0  0  0
   30.4274   -0.8249   12.6785 H   0  0  0  0  0  0  0  0  0  0  0  0
   29.5640   -2.3590   12.9065 H   0  0  0  0  0  0  0  0  0  0  0  0
   30.4280   -2.2907   15.0749 H   0  0  0  0  0  0  0  0  0  0  0  0
   30.7254   -0.5300   14.9822 H   0  0  0  0  0  0  0  0  0  0  0  0
   25.3011   -0.3119   13.8270 H   0  0  0  0  0  0  0  0  0  0  0  0
   24.6371   -3.2014   13.5871 H   0  0  0  0  0  0  0  0  0  0  0  0
   23.9608   -1.8350   12.6952 H   0  0  0  0  0  0  0  0  0  0  0  0
   24.2108   -2.8665   16.4077 H   0  0  0  0  0  0  0  0  0  0  0  0
   22.3177   -2.5580   17.9292 H   0  0  0  0  0  0  0  0  0  0  0  0
   18.2488   -0.3060   17.9137 H   0  0  0  0  0  0  0  0  0  0  0  0
   20.2975   -3.1103   18.6352 H   0  0  0  0  0  0  0  0  0  0  0  0
   18.9433   -2.1973   19.1525 H   0  0  0  0  0  0  0  0  0  0  0  0
   20.0124   -0.7826   14.7581 H   0  0  0  0  0  0  0  0  0  0  0  0
   21.9102   -1.0841   13.2616 H   0  0  0  0  0  0  0  0  0  0  0  0
   30.0898   -0.9811   19.7057 H   0  0  0  0  0  0  0  0  0  0  0  0
   19.1202    0.1730   16.5580 H   0  0  0  0  0  0  0  0  0  0  0  0
  1  2  2  0  0  0  0
  1  3  1  0  0  0  0
  1 12  1  0  0  0  0
  3  4  1  0  0  0  0
  3 30  1  0  0  0  0
  3 31  1  0  0  0  0
  4  5  1  0  0  0  0
  4 32  1  0  0  0  0
  4 63  1  0  0  0  0
  5  6  1  0  0  0  0
  5 11  1  0  0  0  0
  5 33  1  0  0  0  0
  6  7  1  0  0  0  0
  6 34  1  0  0  0  0
  6 35  1  0  0  0  0
  7  8  1  0  0  0  0
  7 36  1  0  0  0  0
  7 37  1  0  0  0  0
  8  9  1  0  0  0  0
  8 38  1  0  0  0  0
  8 39  1  0  0  0  0
  9 10  1  0  0  0  0
  9 40  1  0  0  0  0
  9 41  1  0  0  0  0
 10 11  1  0  0  0  0
 10 42  1  0  0  0  0
 10 43  1  0  0  0  0
 11 44  1  0  0  0  0
 11 45  1  0  0  0  0
 12 13  1  0  0  0  0
 12 18  1  0  0  0  0
 13 14  1  0  0  0  0
 13 16  1  0  0  0  0
 13 46  1  1  0  0  0
 14 15  2  0  0  0  0
 14 19  1  0  0  0  0
 16 17  1  0  0  0  0
 16 47  1  0  0  0  0
 16 48  1  0  0  0  0
 17 18  1  0  0  0  0
 17 49  1  0  0  0  0
 17 50  1  0  0  0  0
 18 51  1  0  0  0  0
 18 52  1  0  0  0  0
 19 20  1  0  0  0  0
 19 53  1  0  0  0  0
 20 21  1  0  0  0  0
 20 54  1  0  0  0  0
 20 55  1  0  0  0  0
 21 22  2  0  0  0  0
 21 29  1  0  0  0  0
 22 23  1  0  0  0  0
 22 56  1  0  0  0  0
 23 24  2  0  0  0  0
 23 57  1  0  0  0  0
 24 25  1  0  0  0  0
 24 28  1  0  0  0  0
 25 26  2  0  0  0  0
 25 27  1  0  0  0  0
 26 58  1  0  0  0  0
 26 64  1  0  0  0  0
 27 59  1  0  0  0  0
 27 60  1  0  0  0  0
 28 29  2  0  0  0  0
 28 61  1  0  0  0  0
 29 62  1  0  0  0  0
M  CHG  1   4   1
M  END
$$$$
