13U
 OpenBabel04051920553D

 67 69  0  0  1  0  0  0  0  0999 V2000
   18.1395   -9.1958   12.0695 C   0  0  0  0  0  0  0  0  0  0  0  0
   18.2557   -8.4195   11.1642 O   0  0  0  0  0  0  0  0  0  0  0  0
   19.1352  -10.3449   12.3897 C   0  0  0  0  0  0  0  0  0  0  0  0
   19.6324  -11.1782   11.2561 N   0  3  0  0  0  0  0  0  0  0  0  0
   18.9291  -12.4310   10.7669 C   0  0  0  0  0  0  0  0  0  0  0  0
   17.4456  -12.3093   11.0658 C   0  0  0  0  0  0  0  0  0  0  0  0
   16.3935  -12.6144   10.0236 C   0  0  0  0  0  0  0  0  0  0  0  0
   15.8841  -13.9985    9.6384 C   0  0  0  0  0  0  0  0  0  0  0  0
   16.7688  -14.7986    8.6843 C   0  0  0  0  0  0  0  0  0  0  0  0
   18.1933  -14.9017    9.2081 C   0  0  0  0  0  0  0  0  0  0  0  0
   19.2167  -13.9448    8.6124 C   0  0  0  0  0  0  0  0  0  0  0  0
   19.4910  -12.6396    9.3624 C   0  0  0  0  0  0  0  0  0  0  0  0
   17.0801   -9.1744   12.9859 N   0  0  0  0  0  0  0  0  0  0  0  0
   16.0920   -8.1372   12.8892 C   0  0  2  0  0  0  0  0  0  0  0  0
   16.7106   -6.7199   12.8980 C   0  0  0  0  0  0  0  0  0  0  0  0
   17.6629   -6.4449   13.5825 O   0  0  0  0  0  0  0  0  0  0  0  0
   15.2541   -8.2915   14.1452 C   0  0  0  0  0  0  0  0  0  0  0  0
   15.6365   -9.6107   14.7976 C   0  0  0  0  0  0  0  0  0  0  0  0
   16.9660   -9.9727   14.1996 C   0  0  0  0  0  0  0  0  0  0  0  0
   16.0506   -5.8208   12.1165 N   0  0  0  0  0  0  0  0  0  0  0  0
   16.4880   -4.4506   12.0436 C   0  0  0  0  0  0  0  0  0  0  0  0
   17.1461   -4.2143   10.7219 C   0  0  0  0  0  0  0  0  0  0  0  0
   18.2872   -4.9297   10.3613 C   0  0  0  0  0  0  0  0  0  0  0  0
   18.8916   -4.6976    9.1235 C   0  0  0  0  0  0  0  0  0  0  0  0
   18.3805   -3.7631    8.2233 C   0  0  0  0  0  0  0  0  0  0  0  0
   18.9973   -3.5079    6.9054 C   0  0  0  0  0  0  0  0  0  0  0  0
   18.2155   -3.1382    5.9120 N   0  0  0  0  0  0  0  0  0  0  0  0
   20.3018   -3.6447    6.7171 N   0  0  0  0  0  0  0  0  0  0  0  0
   17.2256   -3.0641    8.6025 C   0  0  0  0  0  0  0  0  0  0  0  0
   16.6166   -3.2855    9.8367 C   0  0  0  0  0  0  0  0  0  0  0  0
   18.7019  -11.0619   13.0720 H   0  0  0  0  0  0  0  0  0  0  0  0
   20.0265   -9.9078   12.8316 H   0  0  0  0  0  0  0  0  0  0  0  0
   19.7212  -10.5410   10.4584 H   0  0  0  0  0  0  0  0  0  0  0  0
   19.3116  -13.2410   11.3914 H   0  0  0  0  0  0  0  0  0  0  0  0
   17.2445  -11.2654   11.3253 H   0  0  0  0  0  0  0  0  0  0  0  0
   17.2678  -12.8956   11.9719 H   0  0  0  0  0  0  0  0  0  0  0  0
   16.7387  -12.1467    9.1106 H   0  0  0  0  0  0  0  0  0  0  0  0
   15.5061  -12.1024   10.4080 H   0  0  0  0  0  0  0  0  0  0  0  0
   14.9206  -13.8360    9.1240 H   0  0  0  0  0  0  0  0  0  0  0  0
   15.6847  -14.6012   10.5316 H   0  0  0  0  0  0  0  0  0  0  0  0
   16.7413  -14.3535    7.6814 H   0  0  0  0  0  0  0  0  0  0  0  0
   16.3409  -15.8148    8.5994 H   0  0  0  0  0  0  0  0  0  0  0  0
   18.5348  -15.9201    9.0050 H   0  0  0  0  0  0  0  0  0  0  0  0
   18.1631  -14.7630   10.2842 H   0  0  0  0  0  0  0  0  0  0  0  0
   18.9342  -13.6819    7.5860 H   0  0  0  0  0  0  0  0  0  0  0  0
   20.1750  -14.4895    8.5454 H   0  0  0  0  0  0  0  0  0  0  0  0
   20.5956  -12.5472    9.4429 H   0  0  0  0  0  0  0  0  0  0  0  0
   19.1545  -11.8112    8.7283 H   0  0  0  0  0  0  0  0  0  0  0  0
   15.4994   -8.2642   11.9769 H   0  0  0  0  0  0  0  0  0  0  0  0
   14.1990   -8.2964   13.8811 H   0  0  0  0  0  0  0  0  0  0  0  0
   15.4457   -7.4749   14.8477 H   0  0  0  0  0  0  0  0  0  0  0  0
   14.8896  -10.3844   14.5806 H   0  0  0  0  0  0  0  0  0  0  0  0
   15.7131   -9.5108   15.8867 H   0  0  0  0  0  0  0  0  0  0  0  0
   17.7942   -9.7174   14.8678 H   0  0  0  0  0  0  0  0  0  0  0  0
   17.0094  -11.0429   13.9740 H   0  0  0  0  0  0  0  0  0  0  0  0
   15.3099   -6.1263   11.5120 H   0  0  0  0  0  0  0  0  0  0  0  0
   17.1836   -4.2160   12.8537 H   0  0  0  0  0  0  0  0  0  0  0  0
   15.5978   -3.8223   12.1460 H   0  0  0  0  0  0  0  0  0  0  0  0
   18.7050   -5.6699   11.0478 H   0  0  0  0  0  0  0  0  0  0  0  0
   19.7742   -5.2807    8.8837 H   0  0  0  0  0  0  0  0  0  0  0  0
   18.5631   -2.9408    4.9824 H   0  0  0  0  0  0  0  0  0  0  0  0
   20.9056   -3.9133    7.4814 H   0  0  0  0  0  0  0  0  0  0  0  0
   20.7357   -3.4594    5.8260 H   0  0  0  0  0  0  0  0  0  0  0  0
   16.7885   -2.3193    7.9457 H   0  0  0  0  0  0  0  0  0  0  0  0
   15.7227   -2.7244   10.1129 H   0  0  0  0  0  0  0  0  0  0  0  0
   20.5687  -11.4928   11.5420 H   0  0  0  0  0  0  0  0  0  0  0  0
   17.2143   -3.0463    6.0557 H   0  0  0  0  0  0  0  0  0  0  0  0
  1  2  2  0  0  0  0
  1  3  1  0  0  0  0
  1 13  1  0  0  0  0
  3  4  1  0  0  0  0
  3 31  1  0  0  0  0
  3 32  1  0  0  0  0
  4  5  1  0  0  0  0
  4 33  1  0  0  0  0
  4 66  1  0  0  0  0
  5  6  1  0  0  0  0
  5 12  1  0  0  0  0
  5 34  1  0  0  0  0
  6  7  1  0  0  0  0
  6 35  1  0  0  0  0
  6 36  1  0  0  0  0
  7  8  1  0  0  0  0
  7 37  1  0  0  0  0
  7 38  1  0  0  0  0
  8  9  1  0  0  0  0
  8 39  1  0  0  0  0
  8 40  1  0  0  0  0
  9 10  1  0  0  0  0
  9 41  1  0  0  0  0
  9 42  1  0  0  0  0
 10 11  1  0  0  0  0
 10 43  1  0  0  0  0
 10 44  1  0  0  0  0
 11 12  1  0  0  0  0
 11 45  1  0  0  0  0
 11 46  1  0  0  0  0
 12 47  1  0  0  0  0
 12 48  1  0  0  0  0
 13 14  1  0  0  0  0
 13 19  1  0  0  0  0
 14 15  1  0  0  0  0
 14 17  1  0  0  0  0
 14 49  1  6  0  0  0
 15 16  2  0  0  0  0
 15 20  1  0  0  0  0
 17 18  1  0  0  0  0
 17 50  1  0  0  0  0
 17 51  1  0  0  0  0
 18 19  1  0  0  0  0
 18 52  1  0  0  0  0
 18 53  1  0  0  0  0
 19 54  1  0  0  0  0
 19 55  1  0  0  0  0
 20 21  1  0  0  0  0
 20 56  1  0  0  0  0
 21 22  1  0  0  0  0
 21 57  1  0  0  0  0
 21 58  1  0  0  0  0
 22 23  2  0  0  0  0
 22 30  1  0  0  0  0
 23 24  1  0  0  0  0
 23 59  1  0  0  0  0
 24 25  2  0  0  0  0
 24 60  1  0  0  0  0
 25 26  1  0  0  0  0
 25 29  1  0  0  0  0
 26 27  2  0  0  0  0
 26 28  1  0  0  0  0
 27 61  1  0  0  0  0
 27 67  1  0  0  0  0
 28 62  1  0  0  0  0
 28 63  1  0  0  0  0
 29 30  2  0  0  0  0
 29 64  1  0  0  0  0
 30 65  1  0  0  0  0
M  CHG  1   4   1
M  END
$$$$
