19A
 OpenBabel04051918383D

 37 39  0  0  1  0  0  0  0  0999 V2000
   -9.1876   13.4126   41.2387 C   0  0  0  0  0  0  0  0  0  0  0  0
  -10.6440   13.2564   41.1788 N   0  0  0  0  0  0  0  0  0  0  0  0
  -11.4160   14.2276   41.9299 C   0  0  0  0  0  0  0  0  0  0  0  0
  -11.1903   12.2108   40.4020 C   0  0  0  0  0  0  0  0  0  0  0  0
  -10.4171   11.4727   39.7748 O   0  0  0  0  0  0  0  0  0  0  0  0
  -12.6408   11.9584   40.2821 C   0  0  2  0  0  0  0  0  0  0  0  0
  -13.7011   12.3235   41.1017 C   0  0  0  0  0  0  0  0  0  0  0  0
  -14.9194   11.8423   40.6023 C   0  0  1  0  0  0  0  0  0  0  0  0
  -14.6176   11.1167   39.4766 C   0  0  0  0  0  0  0  0  0  0  0  0
  -13.2335   11.1862   39.2606 N   0  3  0  0  0  0  0  0  0  0  0  0
  -16.2699   12.0684   41.1977 C   0  0  1  0  0  0  0  0  0  0  0  0
  -17.2774   11.1223   41.1332 N   0  3  0  0  0  0  0  0  0  0  0  0
  -18.4104   11.5253   41.7709 N   0  0  0  0  0  0  0  0  0  0  0  0
  -18.1152   12.7558   42.2426 C   0  0  0  0  0  0  0  0  0  0  0  0
  -16.7782   13.1344   41.9253 C   0  0  2  0  0  0  0  0  0  0  0  0
  -16.1589   14.4147   42.3099 C   0  0  0  0  0  0  0  0  0  0  0  0
  -15.4933   15.2335   41.3830 C   0  0  0  0  0  0  0  0  0  0  0  0
  -14.9088   16.4442   41.7904 C   0  0  0  0  0  0  0  0  0  0  0  0
  -15.0095   16.8569   43.1260 C   0  0  0  0  0  0  0  0  0  0  0  0
  -15.6925   16.0632   44.0558 C   0  0  0  0  0  0  0  0  0  0  0  0
  -16.2744   14.8543   43.6460 C   0  0  0  0  0  0  0  0  0  0  0  0
   -8.9085   14.2665   41.8732 H   0  0  0  0  0  0  0  0  0  0  0  0
   -8.7782   13.5793   40.2346 H   0  0  0  0  0  0  0  0  0  0  0  0
   -8.7265   12.5079   41.6530 H   0  0  0  0  0  0  0  0  0  0  0  0
  -12.4553   14.0889   41.8028 H   0  0  0  0  0  0  0  0  0  0  0  0
  -11.2198   15.2342   41.5667 H   0  0  0  0  0  0  0  0  0  0  0  0
  -11.1778   14.1562   42.9951 H   0  0  0  0  0  0  0  0  0  0  0  0
  -13.6472   12.8633   42.0198 H   0  0  0  0  0  0  0  0  0  0  0  0
  -15.2710   10.5940   38.7878 H   0  0  0  0  0  0  0  0  0  0  0  0
  -12.7261   10.7563   38.4944 H   0  0  0  0  0  0  0  0  0  0  0  0
  -17.2162   10.2197   40.7045 H   0  0  0  0  0  0  0  0  0  0  0  0
  -18.8292   13.3488   42.7892 H   0  0  0  0  0  0  0  0  0  0  0  0
  -15.4134   14.9335   40.3389 H   0  0  0  0  0  0  0  0  0  0  0  0
  -14.3708   17.0689   41.0712 H   0  0  0  0  0  0  0  0  0  0  0  0
  -14.5596   17.8007   43.4418 H   0  0  0  0  0  0  0  0  0  0  0  0
  -15.7686   16.3828   45.0982 H   0  0  0  0  0  0  0  0  0  0  0  0
  -16.8019   14.2533   44.3900 H   0  0  0  0  0  0  0  0  0  0  0  0
  1  2  1  0  0  0  0
  1 22  1  0  0  0  0
  1 23  1  0  0  0  0
  1 24  1  0  0  0  0
  2  3  1  0  0  0  0
  2  4  1  0  0  0  0
  3 25  1  0  0  0  0
  3 26  1  0  0  0  0
  3 27  1  0  0  0  0
  4  5  2  0  0  0  0
  6  4  1  1  0  0  0
  6  7  1  0  0  0  0
  6 10  1  0  0  0  0
  7 28  1  0  0  0  0
  8  7  1  1  0  0  0
  8  9  1  0  0  0  0
  8 11  1  0  0  0  0
  9 10  1  0  0  0  0
  9 29  1  0  0  0  0
 10 30  1  0  0  0  0
 11 12  1  1  0  0  0
 11 15  1  0  0  0  0
 12 13  1  0  0  0  0
 12 31  1  0  0  0  0
 13 14  1  0  0  0  0
 14 15  1  0  0  0  0
 14 32  1  0  0  0  0
 15 16  1  6  0  0  0
 16 17  1  0  0  0  0
 16 21  1  0  0  0  0
 17 18  1  0  0  0  0
 17 33  1  0  0  0  0
 18 19  1  0  0  0  0
 18 34  1  0  0  0  0
 19 20  1  0  0  0  0
 19 35  1  0  0  0  0
 20 21  1  0  0  0  0
 20 36  1  0  0  0  0
 21 37  1  0  0  0  0
M  CHG  2  10   1  12   1
M  END
$$$$
