1AA
 OpenBabel04051917193D

 59 61  0  0  1  0  0  0  0  0999 V2000
    4.6776    4.8663   15.1398 O   0  0  0  0  0  0  0  0  0  0  0  0
    3.7473    5.6511   15.0758 C   0  0  0  0  0  0  0  0  0  0  0  0
    3.4225    6.4438   16.1675 N   0  0  0  0  0  0  0  0  0  0  0  0
    2.3896    7.2259   16.1239 C   0  0  0  0  0  0  0  0  0  0  0  0
    2.0563    7.9847   17.2141 N   0  0  0  0  0  0  0  0  0  0  0  0
    1.5335    7.3351   14.9312 C   0  0  0  0  0  0  0  0  0  0  0  0
    1.8723    6.5866   13.8768 C   0  0  0  0  0  0  0  0  0  0  0  0
    2.9554    5.7373   13.9081 N   0  3  0  0  0  0  0  0  0  0  0  0
    3.2842    4.8833   12.7398 C   0  0  2  0  0  0  0  0  0  0  0  0
    3.2723    5.6470   11.5117 O   0  0  0  0  0  0  0  0  0  0  0  0
    2.3392    3.6845   12.5354 C   0  0  2  0  0  0  0  0  0  0  0  0
    3.0865    2.5119   12.1268 O   0  0  0  0  0  0  0  0  0  0  0  0
    1.4355    4.1246   11.3928 C   0  0  2  0  0  0  0  0  0  0  0  0
    0.9390    2.9961   10.6615 O   0  0  0  0  0  0  0  0  0  0  0  0
    2.3526    5.0324   10.5762 C   0  0  1  0  0  0  0  0  0  0  0  0
    1.5701    6.1041    9.8072 C   0  0  0  0  0  0  0  0  0  0  0  0
    0.8325    6.8768   10.7359 O   0  0  0  0  0  0  0  0  0  0  0  0
   -0.4023    7.8256   10.2421 P   0  0  2  0  0  0  0  0  0  0  0  0
    0.2532    9.0760    9.7252 O   0  0  0  0  0  0  0  0  0  0  0  0
   -1.3233    7.8751   11.4463 O   0  0  0  0  0  0  0  0  0  0  0  0
   -1.0055    6.8801    9.0944 O   0  0  0  0  0  0  0  0  0  0  0  0
   -1.7118    7.3547    7.7322 P   0  0  2  0  0  0  0  0  0  0  0  0
   -1.2359    8.6999    7.2595 O   0  0  0  0  0  0  0  0  0  0  0  0
   -3.1887    7.0268    7.7645 O   0  0  0  0  0  0  0  0  0  0  0  0
   -1.0219    6.2915    6.6940 O   0  0  0  0  0  0  0  0  0  0  0  0
   -1.2581    4.9030    6.8299 C   0  0  0  0  0  0  0  0  0  0  0  0
    0.0802    4.1653    6.7431 C   0  0  0  0  0  0  0  0  0  0  0  0
    0.2587    3.6432    5.3862 O   0  0  0  0  0  0  0  0  0  0  0  0
    1.3612    4.1083    4.7525 C   0  0  0  0  0  0  0  0  0  0  0  0
    2.3348    4.6045    5.3291 O   0  0  0  0  0  0  0  0  0  0  0  0
    1.3871    3.9342    3.2593 C   0  0  0  0  0  0  0  0  0  0  0  0
    0.2085    3.7490    2.5314 C   0  0  0  0  0  0  0  0  0  0  0  0
    0.2467    3.6342    1.1489 C   0  0  0  0  0  0  0  0  0  0  0  0
    1.4721    3.7100    0.4519 C   0  0  0  0  0  0  0  0  0  0  0  0
    2.6479    3.9042    1.1733 C   0  0  0  0  0  0  0  0  0  0  0  0
    2.6175    4.0380    2.5639 C   0  0  0  0  0  0  0  0  0  0  0  0
    3.8454    4.1158    3.2264 N   0  0  0  0  0  0  0  0  0  0  0  0
    1.3138    8.6745   17.1765 H   0  0  0  0  0  0  0  0  0  0  0  0
    2.6592    7.9833   18.0192 H   0  0  0  0  0  0  0  0  0  0  0  0
    0.7092    8.0270   14.9172 H   0  0  0  0  0  0  0  0  0  0  0  0
    1.2938    6.6514   12.9754 H   0  0  0  0  0  0  0  0  0  0  0  0
    4.3095    4.5069   12.8402 H   0  0  0  0  0  0  0  0  0  0  0  0
    1.7814    3.4232   13.4376 H   0  0  0  0  0  0  0  0  0  0  0  0
    2.4354    1.7939   12.0304 H   0  0  0  0  0  0  0  0  0  0  0  0
    0.5800    4.6832   11.7842 H   0  0  0  0  0  0  0  0  0  0  0  0
    1.7070    2.5734   10.2399 H   0  0  0  0  0  0  0  0  0  0  0  0
    2.9342    4.4308    9.8600 H   0  0  0  0  0  0  0  0  0  0  0  0
    0.8828    5.6028    9.1262 H   0  0  0  0  0  0  0  0  0  0  0  0
    2.2560    6.7364    9.2356 H   0  0  0  0  0  0  0  0  0  0  0  0
   -1.9084    4.5825    6.0091 H   0  0  0  0  0  0  0  0  0  0  0  0
   -1.7462    4.6880    7.7821 H   0  0  0  0  0  0  0  0  0  0  0  0
    0.0955    3.3295    7.4548 H   0  0  0  0  0  0  0  0  0  0  0  0
    0.8939    4.8463    7.0149 H   0  0  0  0  0  0  0  0  0  0  0  0
   -0.7505    3.7180    3.0502 H   0  0  0  0  0  0  0  0  0  0  0  0
   -0.6706    3.5073    0.5793 H   0  0  0  0  0  0  0  0  0  0  0  0
    1.4711    3.6308   -0.6431 H   0  0  0  0  0  0  0  0  0  0  0  0
    3.5880    3.9571    0.6244 H   0  0  0  0  0  0  0  0  0  0  0  0
    3.7987    4.3598    4.2224 H   0  0  0  0  0  0  0  0  0  0  0  0
    4.6949    4.3057    2.7197 H   0  0  0  0  0  0  0  0  0  0  0  0
  1  2  2  0  0  0  0
  2  3  1  0  0  0  0
  2  8  1  0  0  0  0
  3  4  1  0  0  0  0
  4  5  1  0  0  0  0
  4  6  2  0  0  0  0
  5 38  1  0  0  0  0
  5 39  1  0  0  0  0
  6  7  1  0  0  0  0
  6 40  1  0  0  0  0
  7  8  2  0  0  0  0
  7 41  1  0  0  0  0
  8  9  1  0  0  0  0
  9 10  1  0  0  0  0
  9 11  1  0  0  0  0
  9 42  1  1  0  0  0
 10 15  1  0  0  0  0
 11 12  1  0  0  0  0
 11 13  1  0  0  0  0
 11 43  1  1  0  0  0
 12 44  1  0  0  0  0
 13 14  1  0  0  0  0
 13 15  1  0  0  0  0
 13 45  1  1  0  0  0
 14 46  1  0  0  0  0
 15 16  1  0  0  0  0
 15 47  1  6  0  0  0
 16 17  1  0  0  0  0
 16 48  1  0  0  0  0
 16 49  1  0  0  0  0
 18 17  1  1  0  0  0
 18 19  2  0  0  0  0
 18 20  1  0  0  0  0
 18 21  1  0  0  0  0
 22 21  1  1  0  0  0
 22 23  2  0  0  0  0
 22 24  1  0  0  0  0
 22 25  1  0  0  0  0
 25 26  1  0  0  0  0
 26 27  1  0  0  0  0
 26 50  1  0  0  0  0
 26 51  1  0  0  0  0
 27 28  1  0  0  0  0
 27 52  1  0  0  0  0
 27 53  1  0  0  0  0
 28 29  1  0  0  0  0
 29 30  2  0  0  0  0
 29 31  1  0  0  0  0
 31 32  2  0  0  0  0
 31 36  1  0  0  0  0
 32 33  1  0  0  0  0
 32 54  1  0  0  0  0
 33 34  2  0  0  0  0
 33 55  1  0  0  0  0
 34 35  1  0  0  0  0
 34 56  1  0  0  0  0
 35 36  2  0  0  0  0
 35 57  1  0  0  0  0
 36 37  1  0  0  0  0
 37 58  1  0  0  0  0
 37 59  1  0  0  0  0
M  CHG  1   8   1
M  END
$$$$
