1BY
 OpenBabel04051918123D

 25 25  0  0  0  0  0  0  0  0999 V2000
   14.8308   40.9923   45.4634 C   0  0  0  0  0  0  0  0  0  0  0  0
   15.1656   41.9396   46.4437 C   0  0  0  0  0  0  0  0  0  0  0  0
   14.0510   41.3849   44.3850 C   0  0  0  0  0  0  0  0  0  0  0  0
   13.6386   42.6993   44.3483 C   0  0  0  0  0  0  0  0  0  0  0  0
   13.9592   43.6219   45.2834 N   0  0  0  0  0  0  0  0  0  0  0  0
   14.7609   43.2654   46.3179 C   0  0  0  0  0  0  0  0  0  0  0  0
   15.0693   44.2374   47.2590 N   0  0  0  0  0  0  0  0  0  0  0  0
   16.1547   43.9974   48.2833 C   0  0  0  0  0  0  0  0  0  0  0  0
   16.9622   45.2410   48.7088 C   0  0  0  0  0  0  0  0  0  0  0  0
   17.2536   45.0228   50.7121 P   0  0  0  0  0  0  0  0  0  0  0  0
   15.8531   44.6480   51.2467 O   0  0  0  0  0  0  0  0  0  0  0  0
   18.2471   43.8825   50.9500 O   0  0  0  0  0  0  0  0  0  0  0  0
   17.6798   46.3905   51.2833 O   0  0  0  0  0  0  0  0  0  0  0  0
   18.3223   45.5277   47.2537 P   0  0  0  0  0  0  0  0  0  0  0  0
   19.0588   44.2014   47.0306 O   0  0  0  0  0  0  0  0  0  0  0  0
   17.4207   45.8735   46.0451 O   0  0  0  0  0  0  0  0  0  0  0  0
   19.2216   46.7097   47.6174 O   0  0  0  0  0  0  0  0  0  0  0  0
   15.2179   39.9810   45.5486 H   0  0  0  0  0  0  0  0  0  0  0  0
   15.7901   41.6284   47.2707 H   0  0  0  0  0  0  0  0  0  0  0  0
   13.7881   40.6851   43.6017 H   0  0  0  0  0  0  0  0  0  0  0  0
   13.0308   43.0746   43.5415 H   0  0  0  0  0  0  0  0  0  0  0  0
   15.2820   45.1145   46.7564 H   0  0  0  0  0  0  0  0  0  0  0  0
   16.8681   43.2504   47.9406 H   0  0  0  0  0  0  0  0  0  0  0  0
   15.6317   43.5682   49.1408 H   0  0  0  0  0  0  0  0  0  0  0  0
   16.3597   46.1602   48.6738 H   0  0  0  0  0  0  0  0  0  0  0  0
  1  2  2  0  0  0  0
  1  3  1  0  0  0  0
  1 18  1  0  0  0  0
  2  6  1  0  0  0  0
  2 19  1  0  0  0  0
  3  4  2  0  0  0  0
  3 20  1  0  0  0  0
  4  5  1  0  0  0  0
  4 21  1  0  0  0  0
  5  6  2  0  0  0  0
  6  7  1  0  0  0  0
  7  8  1  0  0  0  0
  7 22  1  0  0  0  0
  8  9  1  0  0  0  0
  8 23  1  0  0  0  0
  8 24  1  0  0  0  0
  9 10  1  0  0  0  0
  9 14  1  0  0  0  0
  9 25  1  0  0  0  0
 10 11  2  0  0  0  0
 10 12  1  0  0  0  0
 10 13  1  0  0  0  0
 14 15  2  0  0  0  0
 14 16  1  0  0  0  0
 14 17  1  0  0  0  0
M  END
$$$$
