1C2
 OpenBabel04051917533D

 48 49  0  0  1  0  0  0  0  0999 V2000
  -10.3122   47.0177   46.2729 O   0  0  0  0  0  0  0  0  0  0  0  0
   -9.1483   47.6110   46.9195 S   0  0  0  0  0  0  0  0  0  0  0  0
   -8.0546   46.6892   47.2109 O   0  0  0  0  0  0  0  0  0  0  0  0
   -8.7350   48.9018   46.3810 O   0  0  0  0  0  0  0  0  0  0  0  0
   -9.7148   48.0615   48.4348 N   0  0  0  0  0  0  0  0  0  0  0  0
  -10.3033   47.1094   49.2863 C   0  0  0  0  0  0  0  0  0  0  0  0
   -9.5258   46.3721   50.1671 C   0  0  0  0  0  0  0  0  0  0  0  0
  -11.6912   46.9569   49.2625 C   0  0  0  0  0  0  0  0  0  0  0  0
  -12.3113   46.0600   50.1363 C   0  0  0  0  0  0  0  0  0  0  0  0
  -13.8043   45.8785   50.1015 C   0  0  0  0  0  0  0  0  0  0  0  0
  -14.3925   45.3020   51.3075 N   0  0  0  0  0  0  0  0  0  0  0  0
  -15.7527   45.1039   51.3998 C   0  0  0  0  0  0  0  0  0  0  0  0
  -16.3155   44.6899   52.4019 O   0  0  0  0  0  0  0  0  0  0  0  0
  -16.3639   45.4640   50.2446 O   0  0  0  0  0  0  0  0  0  0  0  0
  -17.7987   45.4235   50.0653 C   0  0  0  0  0  0  0  0  0  0  0  0
  -18.0084   45.6641   48.5617 C   0  0  0  0  0  0  0  0  0  0  0  0
  -18.4569   46.5589   50.8489 C   0  0  0  0  0  0  0  0  0  0  0  0
  -18.3881   44.0573   50.4159 C   0  0  0  0  0  0  0  0  0  0  0  0
  -13.5200   44.9622   52.4472 C   0  0  2  0  0  0  0  0  0  0  0  0
  -13.2331   46.1645   53.3799 C   0  0  0  0  0  0  0  0  0  0  0  0
  -12.4166   46.0985   54.2977 O   0  0  0  0  0  0  0  0  0  0  0  0
  -13.9911   47.2928   53.1490 N   0  0  0  0  0  0  0  0  0  0  0  0
  -13.8416   48.4709   53.9581 C   0  0  0  0  0  0  0  0  0  0  0  0
  -12.2079   44.3431   51.9547 C   0  0  0  0  0  0  0  0  0  0  0  0
  -11.5221   45.3029   51.0177 C   0  0  0  0  0  0  0  0  0  0  0  0
  -10.1310   45.4583   51.0316 C   0  0  0  0  0  0  0  0  0  0  0  0
   -9.5564   49.0225   48.7078 H   0  0  0  0  0  0  0  0  0  0  0  0
   -8.4442   46.5023   50.2006 H   0  0  0  0  0  0  0  0  0  0  0  0
  -12.2900   47.5429   48.5668 H   0  0  0  0  0  0  0  0  0  0  0  0
  -14.0642   45.2260   49.2595 H   0  0  0  0  0  0  0  0  0  0  0  0
  -14.2872   46.8515   49.9418 H   0  0  0  0  0  0  0  0  0  0  0  0
  -19.0709   45.6910   48.3004 H   0  0  0  0  0  0  0  0  0  0  0  0
  -17.5285   44.8724   47.9734 H   0  0  0  0  0  0  0  0  0  0  0  0
  -17.5457   46.6054   48.2421 H   0  0  0  0  0  0  0  0  0  0  0  0
  -19.5366   46.5923   50.6688 H   0  0  0  0  0  0  0  0  0  0  0  0
  -18.0320   47.5282   50.5610 H   0  0  0  0  0  0  0  0  0  0  0  0
  -18.2911   46.4521   51.9251 H   0  0  0  0  0  0  0  0  0  0  0  0
  -19.4647   44.0309   50.2222 H   0  0  0  0  0  0  0  0  0  0  0  0
  -18.2421   43.7991   51.4668 H   0  0  0  0  0  0  0  0  0  0  0  0
  -17.9044   43.2705   49.8268 H   0  0  0  0  0  0  0  0  0  0  0  0
  -14.0339   44.2251   53.0789 H   0  0  0  0  0  0  0  0  0  0  0  0
  -14.6727   47.2761   52.4028 H   0  0  0  0  0  0  0  0  0  0  0  0
  -14.5235   49.2423   53.5928 H   0  0  0  0  0  0  0  0  0  0  0  0
  -12.8082   48.8215   53.8913 H   0  0  0  0  0  0  0  0  0  0  0  0
  -14.0744   48.2240   54.9971 H   0  0  0  0  0  0  0  0  0  0  0  0
  -12.4178   43.4203   51.4005 H   0  0  0  0  0  0  0  0  0  0  0  0
  -11.5521   44.0864   52.7948 H   0  0  0  0  0  0  0  0  0  0  0  0
   -9.5194   44.8854   51.7202 H   0  0  0  0  0  0  0  0  0  0  0  0
  1  2  2  0  0  0  0
  2  3  2  0  0  0  0
  2  4  1  0  0  0  0
  2  5  1  0  0  0  0
  5  6  1  0  0  0  0
  5 27  1  0  0  0  0
  6  7  2  0  0  0  0
  6  8  1  0  0  0  0
  7 26  1  0  0  0  0
  7 28  1  0  0  0  0
  8  9  2  0  0  0  0
  8 29  1  0  0  0  0
  9 10  1  0  0  0  0
  9 25  1  0  0  0  0
 10 11  1  0  0  0  0
 10 30  1  0  0  0  0
 10 31  1  0  0  0  0
 11 12  1  0  0  0  0
 11 19  1  0  0  0  0
 12 13  2  0  0  0  0
 12 14  1  0  0  0  0
 14 15  1  0  0  0  0
 15 16  1  0  0  0  0
 15 17  1  0  0  0  0
 15 18  1  0  0  0  0
 16 32  1  0  0  0  0
 16 33  1  0  0  0  0
 16 34  1  0  0  0  0
 17 35  1  0  0  0  0
 17 36  1  0  0  0  0
 17 37  1  0  0  0  0
 18 38  1  0  0  0  0
 18 39  1  0  0  0  0
 18 40  1  0  0  0  0
 19 20  1  0  0  0  0
 19 24  1  0  0  0  0
 19 41  1  1  0  0  0
 20 21  2  0  0  0  0
 20 22  1  0  0  0  0
 22 23  1  0  0  0  0
 22 42  1  0  0  0  0
 23 43  1  0  0  0  0
 23 44  1  0  0  0  0
 23 45  1  0  0  0  0
 24 25  1  0  0  0  0
 24 46  1  0  0  0  0
 24 47  1  0  0  0  0
 25 26  2  0  0  0  0
 26 48  1  0  0  0  0
M  END
$$$$
