1CN
 OpenBabel04051918113D

 29 30  0  0  0  0  0  0  0  0999 V2000
   -5.7334    0.8445   16.6539 S   0  0  0  0  0  0  0  0  0  0  0  0
   -7.1563    0.8809   16.4529 O   0  0  0  0  0  0  0  0  0  0  0  0
   -5.1425    1.0148   17.9765 O   0  0  0  0  0  0  0  0  0  0  0  0
   -5.1936   -0.6204   16.0920 N   0  0  0  0  0  0  0  0  0  0  0  0
   -3.7424    2.2665   15.3357 N   0  0  0  0  0  0  0  0  0  0  0  0
   -3.5755    3.4136   14.5452 N   0  0  0  0  0  0  0  0  0  0  0  0
   -6.0845    3.2449   15.0271 S   0  0  0  0  0  0  0  0  0  0  0  0
   -5.0126    2.0909   15.6480 C   0  0  0  0  0  0  0  0  0  0  0  0
   -4.7211    4.0229   14.3843 C   0  0  0  0  0  0  0  0  0  0  0  0
   -4.8978    5.3725   14.1131 N   0  0  0  0  0  0  0  0  0  0  0  0
   -4.3023    6.0993   12.7626 S   0  0  0  0  0  0  0  0  0  0  0  0
   -5.4039    6.9055   12.2592 O   0  0  0  0  0  0  0  0  0  0  0  0
   -3.5781    5.1918   11.9218 O   0  0  0  0  0  0  0  0  0  0  0  0
   -3.0519    7.3284   14.9173 C   0  0  0  0  0  0  0  0  0  0  0  0
   -2.3957    8.0283   12.6850 C   0  0  0  0  0  0  0  0  0  0  0  0
   -2.2224    8.3053   15.4616 C   0  0  0  0  0  0  0  0  0  0  0  0
   -1.4608    9.1604   14.6558 C   0  0  0  0  0  0  0  0  0  0  0  0
   -1.5639    8.9945   13.2616 C   0  0  0  0  0  0  0  0  0  0  0  0
   -3.1548    7.2171   13.5259 C   0  0  0  0  0  0  0  0  0  0  0  0
   -2.1638    8.4236   16.7973 F   0  0  0  0  0  0  0  0  0  0  0  0
   -0.6639   10.0060   12.1875 Cl  0  0  0  0  0  0  0  0  0  0  0  0
   -0.6493   10.1304   15.2357 N   0  0  0  0  0  0  0  0  0  0  0  0
   -5.5862   -0.9917   15.2236 H   0  0  0  0  0  0  0  0  0  0  0  0
   -4.8020   -1.2289   16.7985 H   0  0  0  0  0  0  0  0  0  0  0  0
   -5.7620    5.7686   14.4674 H   0  0  0  0  0  0  0  0  0  0  0  0
   -3.5837    6.6842   15.6083 H   0  0  0  0  0  0  0  0  0  0  0  0
   -2.4365    7.8903   11.6142 H   0  0  0  0  0  0  0  0  0  0  0  0
   -0.5670   10.1912   16.2431 H   0  0  0  0  0  0  0  0  0  0  0  0
   -0.0903   10.7404   14.6526 H   0  0  0  0  0  0  0  0  0  0  0  0
  1  2  2  0  0  0  0
  1  3  2  0  0  0  0
  1  4  1  0  0  0  0
  1  8  1  0  0  0  0
  4 23  1  0  0  0  0
  4 24  1  0  0  0  0
  5  6  1  0  0  0  0
  5  8  2  0  0  0  0
  6  9  2  0  0  0  0
  7  8  1  0  0  0  0
  7  9  1  0  0  0  0
  9 10  1  0  0  0  0
 10 11  1  0  0  0  0
 10 25  1  0  0  0  0
 11 12  2  0  0  0  0
 11 13  2  0  0  0  0
 11 19  1  0  0  0  0
 14 16  2  0  0  0  0
 14 19  1  0  0  0  0
 14 26  1  0  0  0  0
 15 18  1  0  0  0  0
 15 19  2  0  0  0  0
 15 27  1  0  0  0  0
 16 17  1  0  0  0  0
 16 20  1  0  0  0  0
 17 18  2  0  0  0  0
 17 22  1  0  0  0  0
 18 21  1  0  0  0  0
 22 28  1  0  0  0  0
 22 29  1  0  0  0  0
M  END
$$$$
