1PC
 OpenBabel04051918463D

 44 46  0  0  0  0  0  0  0  0999 V2000
   -7.3236  -31.7697  -15.3565 C   0  0  0  0  0  0  0  0  0  0  0  0
   -9.1513  -27.2662  -14.5088 C   0  0  0  0  0  0  0  0  0  0  0  0
   -9.4537  -27.0322  -15.8650 C   0  0  0  0  0  0  0  0  0  0  0  0
  -10.7691  -26.7531  -16.2999 C   0  0  0  0  0  0  0  0  0  0  0  0
  -11.8258  -26.7066  -15.3885 C   0  0  0  0  0  0  0  0  0  0  0  0
  -11.5688  -26.9418  -14.0477 C   0  0  0  0  0  0  0  0  0  0  0  0
  -10.2474  -27.2327  -13.6213 C   0  0  0  0  0  0  0  0  0  0  0  0
   -7.6949  -27.5188  -13.9978 C   0  0  0  0  0  0  0  0  0  0  0  0
   -6.6259  -26.5708  -14.6505 C   0  0  0  0  0  0  0  0  0  0  0  0
   -6.9867  -25.1081  -14.3868 C   0  0  0  0  0  0  0  0  0  0  0  0
   -6.9136  -24.7883  -12.8998 C   0  0  0  0  0  0  0  0  0  0  0  0
   -7.7248  -25.7763  -12.0720 C   0  0  0  0  0  0  0  0  0  0  0  0
   -7.4611  -27.2370  -12.4681 C   0  0  0  0  0  0  0  0  0  0  0  0
   -7.2349  -29.0362  -14.2169 N   0  3  0  0  0  0  0  0  0  0  0  0
   -8.2705  -30.0607  -13.7443 C   0  0  0  0  0  0  0  0  0  0  0  0
   -7.7699  -31.4922  -13.9295 C   0  0  0  0  0  0  0  0  0  0  0  0
   -6.2633  -30.7644  -15.7579 C   0  0  0  0  0  0  0  0  0  0  0  0
   -6.7568  -29.3352  -15.6253 C   0  0  0  0  0  0  0  0  0  0  0  0
   -6.9212  -32.7883  -15.4351 H   0  0  0  0  0  0  0  0  0  0  0  0
   -8.1815  -31.7109  -16.0397 H   0  0  0  0  0  0  0  0  0  0  0  0
   -8.6756  -27.0212  -16.6290 H   0  0  0  0  0  0  0  0  0  0  0  0
  -10.9730  -26.5511  -17.3520 H   0  0  0  0  0  0  0  0  0  0  0  0
  -12.8392  -26.4786  -15.7253 H   0  0  0  0  0  0  0  0  0  0  0  0
  -12.3712  -26.8939  -13.3285 H   0  0  0  0  0  0  0  0  0  0  0  0
  -10.1299  -27.3819  -12.5548 H   0  0  0  0  0  0  0  0  0  0  0  0
   -6.5243  -26.7111  -15.7320 H   0  0  0  0  0  0  0  0  0  0  0  0
   -5.6297  -26.7613  -14.2222 H   0  0  0  0  0  0  0  0  0  0  0  0
   -8.0030  -24.9138  -14.7466 H   0  0  0  0  0  0  0  0  0  0  0  0
   -6.3246  -24.4431  -14.9505 H   0  0  0  0  0  0  0  0  0  0  0  0
   -7.2802  -23.7703  -12.7242 H   0  0  0  0  0  0  0  0  0  0  0  0
   -5.8666  -24.8105  -12.5740 H   0  0  0  0  0  0  0  0  0  0  0  0
   -8.7873  -25.5450  -12.1900 H   0  0  0  0  0  0  0  0  0  0  0  0
   -7.4983  -25.6406  -11.0078 H   0  0  0  0  0  0  0  0  0  0  0  0
   -6.4194  -27.4585  -12.2146 H   0  0  0  0  0  0  0  0  0  0  0  0
   -8.0648  -27.8923  -11.8376 H   0  0  0  0  0  0  0  0  0  0  0  0
   -8.4628  -29.8818  -12.6821 H   0  0  0  0  0  0  0  0  0  0  0  0
   -9.1889  -29.9080  -14.3186 H   0  0  0  0  0  0  0  0  0  0  0  0
   -6.9332  -31.6862  -13.2483 H   0  0  0  0  0  0  0  0  0  0  0  0
   -8.5674  -32.1956  -13.6624 H   0  0  0  0  0  0  0  0  0  0  0  0
   -5.9645  -30.9395  -16.7988 H   0  0  0  0  0  0  0  0  0  0  0  0
   -5.3683  -30.9060  -15.1405 H   0  0  0  0  0  0  0  0  0  0  0  0
   -5.9167  -28.6752  -15.8441 H   0  0  0  0  0  0  0  0  0  0  0  0
   -7.5860  -29.1383  -16.3119 H   0  0  0  0  0  0  0  0  0  0  0  0
   -6.4149  -29.1614  -13.6102 H   0  0  0  0  0  0  0  0  0  0  0  0
  1 17  1  0  0  0  0
  1 16  1  0  0  0  0
  1 19  1  0  0  0  0
  1 20  1  0  0  0  0
  2  8  1  0  0  0  0
  2  7  2  0  0  0  0
  2  3  1  0  0  0  0
  3  4  2  0  0  0  0
  3 21  1  0  0  0  0
  4  5  1  0  0  0  0
  4 22  1  0  0  0  0
  5  6  2  0  0  0  0
  5 23  1  0  0  0  0
  6  7  1  0  0  0  0
  6 24  1  0  0  0  0
  7 25  1  0  0  0  0
  8 14  1  0  0  0  0
  8 13  1  0  0  0  0
  8  9  1  0  0  0  0
  9 10  1  0  0  0  0
  9 26  1  0  0  0  0
  9 27  1  0  0  0  0
 10 11  1  0  0  0  0
 10 28  1  0  0  0  0
 10 29  1  0  0  0  0
 11 12  1  0  0  0  0
 11 30  1  0  0  0  0
 11 31  1  0  0  0  0
 12 13  1  0  0  0  0
 12 32  1  0  0  0  0
 12 33  1  0  0  0  0
 13 34  1  0  0  0  0
 13 35  1  0  0  0  0
 14 15  1  0  0  0  0
 14 18  1  0  0  0  0
 14 44  1  0  0  0  0
 15 16  1  0  0  0  0
 15 36  1  0  0  0  0
 15 37  1  0  0  0  0
 16 38  1  0  0  0  0
 16 39  1  0  0  0  0
 17 18  1  0  0  0  0
 17 40  1  0  0  0  0
 17 41  1  0  0  0  0
 18 42  1  0  0  0  0
 18 43  1  0  0  0  0
M  CHG  1  14   1
M  END
$$$$
