1PP
 OpenBabel04051917243D

 47 49  0  0  0  0  0  0  0  0999 V2000
   13.7968   -0.4719   29.2034 O   0  0  0  0  0  0  0  0  0  0  0  0
   13.3168   -1.2752   29.9369 C   0  0  0  0  0  0  0  0  0  0  0  0
   13.8894   -2.4551   30.3280 N   0  0  0  0  0  0  0  0  0  0  0  0
   15.0952   -2.8848   29.7769 C   0  0  0  0  0  0  0  0  0  0  0  0
   15.2539   -4.2454   29.4808 C   0  0  0  0  0  0  0  0  0  0  0  0
   13.8864   -5.2929   29.7458 Cl  0  0  0  0  0  0  0  0  0  0  0  0
   16.4499   -4.7222   28.9477 C   0  0  0  0  0  0  0  0  0  0  0  0
   16.6139   -6.4125   28.6037 Cl  0  0  0  0  0  0  0  0  0  0  0  0
   17.5223   -3.8414   28.7246 C   0  0  0  0  0  0  0  0  0  0  0  0
   17.3651   -2.4798   29.0324 C   0  0  0  0  0  0  0  0  0  0  0  0
   16.1522   -1.9942   29.5395 C   0  0  0  0  0  0  0  0  0  0  0  0
   12.0880   -1.0996   30.5274 N   0  0  0  0  0  0  0  0  0  0  0  0
   11.3686    0.0586   30.3264 C   0  0  0  0  0  0  0  0  0  0  0  0
   11.1837    0.7629   29.1600 C   0  0  0  0  0  0  0  0  0  0  0  0
   10.2786    1.7732   29.5663 C   0  0  0  0  0  0  0  0  0  0  0  0
    9.6909    2.8341   28.6873 C   0  0  0  0  0  0  0  0  0  0  0  0
    8.6234    2.1673   27.8167 C   0  0  0  0  0  0  0  0  0  0  0  0
   10.7960    3.4593   27.8247 C   0  0  0  0  0  0  0  0  0  0  0  0
    9.0519    3.9373   29.5243 C   0  0  0  0  0  0  0  0  0  0  0  0
    9.9095    1.6677   30.8470 N   0  0  0  0  0  0  0  0  0  0  0  0
   10.5904    0.6228   31.3262 N   0  3  0  0  0  0  0  0  0  0  0  0
   10.5282    0.2310   32.6977 C   0  0  0  0  0  0  0  0  0  0  0  0
   11.6723   -0.1343   33.4260 C   0  0  0  0  0  0  0  0  0  0  0  0
    9.3226    0.2370   33.3874 C   0  0  0  0  0  0  0  0  0  0  0  0
    9.2382   -0.1010   34.7541 C   0  0  0  0  0  0  0  0  0  0  0  0
   10.3833   -0.4078   35.4798 C   0  0  0  0  0  0  0  0  0  0  0  0
   11.6018   -0.3919   34.8142 C   0  0  0  0  0  0  0  0  0  0  0  0
   13.3765   -3.1038   30.9114 H   0  0  0  0  0  0  0  0  0  0  0  0
   18.4830   -4.1878   28.3215 H   0  0  0  0  0  0  0  0  0  0  0  0
   18.1841   -1.7767   28.8790 H   0  0  0  0  0  0  0  0  0  0  0  0
   16.0572   -0.9294   29.7637 H   0  0  0  0  0  0  0  0  0  0  0  0
   11.7196   -1.7479   31.1905 H   0  0  0  0  0  0  0  0  0  0  0  0
   11.5640    0.5968   28.1620 H   0  0  0  0  0  0  0  0  0  0  0  0
    8.1541    2.8843   27.1386 H   0  0  0  0  0  0  0  0  0  0  0  0
    7.8471    1.7299   28.4597 H   0  0  0  0  0  0  0  0  0  0  0  0
    9.0638    1.3551   27.2239 H   0  0  0  0  0  0  0  0  0  0  0  0
   11.5468    3.9388   28.4687 H   0  0  0  0  0  0  0  0  0  0  0  0
   10.3910    4.2136   27.1420 H   0  0  0  0  0  0  0  0  0  0  0  0
   11.3054    2.6938   27.2274 H   0  0  0  0  0  0  0  0  0  0  0  0
    8.2481    3.5172   30.1395 H   0  0  0  0  0  0  0  0  0  0  0  0
    8.6348    4.7244   28.8919 H   0  0  0  0  0  0  0  0  0  0  0  0
    9.8021    4.3780   30.1929 H   0  0  0  0  0  0  0  0  0  0  0  0
   12.6417   -0.1774   32.9394 H   0  0  0  0  0  0  0  0  0  0  0  0
    8.4175    0.4830   32.8421 H   0  0  0  0  0  0  0  0  0  0  0  0
    8.2636   -0.0982   35.2409 H   0  0  0  0  0  0  0  0  0  0  0  0
   10.3197   -0.6640   36.5543 H   0  0  0  0  0  0  0  0  0  0  0  0
   12.5213   -0.5777   35.3665 H   0  0  0  0  0  0  0  0  0  0  0  0
  1  2  2  0  0  0  0
  2  3  1  0  0  0  0
  2 12  1  0  0  0  0
  3  4  1  0  0  0  0
  3 28  1  0  0  0  0
  4  5  2  0  0  0  0
  4 11  1  0  0  0  0
  5  6  1  0  0  0  0
  5  7  1  0  0  0  0
  7  8  1  0  0  0  0
  7  9  2  0  0  0  0
  9 10  1  0  0  0  0
  9 29  1  0  0  0  0
 10 11  2  0  0  0  0
 10 30  1  0  0  0  0
 11 31  1  0  0  0  0
 12 13  1  0  0  0  0
 12 32  1  0  0  0  0
 13 14  1  0  0  0  0
 13 21  2  0  0  0  0
 14 15  2  0  0  0  0
 14 33  1  0  0  0  0
 15 16  1  0  0  0  0
 15 20  1  0  0  0  0
 16 17  1  0  0  0  0
 16 18  1  0  0  0  0
 16 19  1  0  0  0  0
 17 34  1  0  0  0  0
 17 35  1  0  0  0  0
 17 36  1  0  0  0  0
 18 37  1  0  0  0  0
 18 38  1  0  0  0  0
 18 39  1  0  0  0  0
 19 40  1  0  0  0  0
 19 41  1  0  0  0  0
 19 42  1  0  0  0  0
 20 21  1  0  0  0  0
 21 22  1  0  0  0  0
 22 23  2  0  0  0  0
 22 24  1  0  0  0  0
 23 27  1  0  0  0  0
 23 43  1  0  0  0  0
 24 25  2  0  0  0  0
 24 44  1  0  0  0  0
 25 26  1  0  0  0  0
 25 45  1  0  0  0  0
 26 27  2  0  0  0  0
 26 46  1  0  0  0  0
 27 47  1  0  0  0  0
M  CHG  1  21   1
M  END
$$$$
