1UN
 OpenBabel04051918563D

 86 89  0  0  1  0  0  0  0  0999 V2000
  -12.7146   13.4046   27.5281 C   0  0  2  0  0  0  0  0  0  0  0  0
  -12.7444   12.8181   28.9424 C   0  0  1  0  0  0  0  0  0  0  0  0
  -13.0059   11.3094   28.9138 C   0  0  0  0  0  0  0  0  0  0  0  0
  -12.0459   10.5692   27.9854 C   0  0  0  0  0  0  0  0  0  0  0  0
  -12.0564   11.1509   26.5791 C   0  0  0  0  0  0  0  0  0  0  0  0
  -11.7788   12.6451   26.5833 C   0  0  0  0  0  0  0  0  0  0  0  0
  -11.0313   15.0730   28.2525 N   0  3  1  0  0  0  0  0  0  0  0  0
  -10.9982   14.5342   29.6623 C   0  0  1  0  0  0  0  0  0  0  0  0
  -11.4621   13.0985   29.7246 C   0  0  0  0  0  0  0  0  0  0  0  0
  -12.3489   14.8720   27.5730 C   0  0  0  0  0  0  0  0  0  0  0  0
   -9.5736   14.5729   30.2386 C   0  0  0  0  0  0  0  0  0  0  0  0
   -9.5881   14.8524   31.5800 N   0  0  0  0  0  0  0  0  0  0  0  0
   -8.3916   15.0386   32.3937 C   0  0  0  0  0  0  0  0  0  0  0  0
   -7.5585   16.2033   31.8708 C   0  0  0  0  0  0  0  0  0  0  0  0
   -7.5736   13.7584   32.4428 C   0  0  0  0  0  0  0  0  0  0  0  0
   -8.8601   15.3848   33.8032 C   0  0  0  0  0  0  0  0  0  0  0  0
   -8.6084   14.4495   29.5351 O   0  0  0  0  0  0  0  0  0  0  0  0
  -10.6484   16.5199   28.2337 C   0  0  0  0  0  0  0  0  0  0  0  0
  -10.0328   16.8791   26.8913 C   0  0  2  0  0  0  0  0  0  0  0  0
   -8.5688   16.4559   26.7720 C   0  0  1  0  0  0  0  0  0  0  0  0
  -10.1602   18.2811   26.6843 O   0  0  0  0  0  0  0  0  0  0  0  0
   -8.1600   16.6784   25.3816 N   0  0  0  0  0  0  0  0  0  0  0  0
   -7.6703   17.2325   27.7293 C   0  0  0  0  0  0  0  0  0  0  0  0
   -7.7605   15.6642   24.5278 C   0  0  0  0  0  0  0  0  0  0  0  0
   -7.7108   14.5069   24.8872 O   0  0  0  0  0  0  0  0  0  0  0  0
   -7.4632   16.0830   23.1180 C   0  0  0  0  0  0  0  0  0  0  0  0
   -6.3949   16.9719   22.9041 C   0  0  0  0  0  0  0  0  0  0  0  0
   -6.0663   17.3741   21.6077 C   0  0  0  0  0  0  0  0  0  0  0  0
   -6.7855   16.9073   20.5066 C   0  0  0  0  0  0  0  0  0  0  0  0
   -7.8507   16.0223   20.7093 C   0  0  0  0  0  0  0  0  0  0  0  0
   -8.2101   15.5910   22.0129 C   0  0  0  0  0  0  0  0  0  0  0  0
   -8.5509   15.5775   19.6158 O   0  0  0  0  0  0  0  0  0  0  0  0
   -9.3715   14.6422   22.1966 C   0  0  0  0  0  0  0  0  0  0  0  0
   -6.0707   16.3894   27.9450 S   0  0  0  0  0  0  0  0  0  0  0  0
   -5.0569   17.1701   26.7097 C   0  0  0  0  0  0  0  0  0  0  0  0
   -3.8831   16.5129   26.3346 C   0  0  0  0  0  0  0  0  0  0  0  0
   -3.0346   17.0935   25.3885 C   0  0  0  0  0  0  0  0  0  0  0  0
   -3.3593   18.3277   24.8301 C   0  0  0  0  0  0  0  0  0  0  0  0
   -4.5166   18.9941   25.2087 C   0  0  0  0  0  0  0  0  0  0  0  0
   -5.3589   18.4088   26.1472 C   0  0  0  0  0  0  0  0  0  0  0  0
  -13.7270   13.3446   27.1151 H   0  0  0  0  0  0  0  0  0  0  0  0
  -13.5709   13.2973   29.4852 H   0  0  0  0  0  0  0  0  0  0  0  0
  -14.0344   11.1320   28.5772 H   0  0  0  0  0  0  0  0  0  0  0  0
  -12.9106   10.9034   29.9284 H   0  0  0  0  0  0  0  0  0  0  0  0
  -12.3224    9.5104   27.9427 H   0  0  0  0  0  0  0  0  0  0  0  0
  -11.0287   10.6269   28.3882 H   0  0  0  0  0  0  0  0  0  0  0  0
  -13.0353   10.9688   26.1216 H   0  0  0  0  0  0  0  0  0  0  0  0
  -11.2977   10.6457   25.9698 H   0  0  0  0  0  0  0  0  0  0  0  0
  -10.7366   12.8041   26.8786 H   0  0  0  0  0  0  0  0  0  0  0  0
  -11.8982   13.0365   25.5646 H   0  0  0  0  0  0  0  0  0  0  0  0
  -11.6578   15.1860   30.2488 H   0  0  0  0  0  0  0  0  0  0  0  0
  -10.6544   12.4535   29.3625 H   0  0  0  0  0  0  0  0  0  0  0  0
  -11.6273   12.8465   30.7792 H   0  0  0  0  0  0  0  0  0  0  0  0
  -13.0872   15.4468   28.1401 H   0  0  0  0  0  0  0  0  0  0  0  0
  -12.2685   15.2818   26.5657 H   0  0  0  0  0  0  0  0  0  0  0  0
  -10.4653   14.8237   32.0702 H   0  0  0  0  0  0  0  0  0  0  0  0
   -6.6790   16.3617   32.5028 H   0  0  0  0  0  0  0  0  0  0  0  0
   -8.1515   17.1256   31.8623 H   0  0  0  0  0  0  0  0  0  0  0  0
   -7.2159   16.0098   30.8524 H   0  0  0  0  0  0  0  0  0  0  0  0
   -6.6805   13.8975   33.0593 H   0  0  0  0  0  0  0  0  0  0  0  0
   -7.2619   13.4632   31.4380 H   0  0  0  0  0  0  0  0  0  0  0  0
   -8.1736   12.9476   32.8680 H   0  0  0  0  0  0  0  0  0  0  0  0
   -8.0044   15.5650   34.4596 H   0  0  0  0  0  0  0  0  0  0  0  0
   -9.4562   14.5632   34.2148 H   0  0  0  0  0  0  0  0  0  0  0  0
   -9.4866   16.2846   33.7840 H   0  0  0  0  0  0  0  0  0  0  0  0
   -9.9652   16.7203   29.0586 H   0  0  0  0  0  0  0  0  0  0  0  0
  -11.5625   17.0974   28.4132 H   0  0  0  0  0  0  0  0  0  0  0  0
  -10.5890   16.3719   26.0958 H   0  0  0  0  0  0  0  0  0  0  0  0
   -8.4913   15.3860   27.0139 H   0  0  0  0  0  0  0  0  0  0  0  0
  -11.1040   18.5337   26.7531 H   0  0  0  0  0  0  0  0  0  0  0  0
   -8.1865   17.6190   25.0353 H   0  0  0  0  0  0  0  0  0  0  0  0
   -8.1063   17.2942   28.7236 H   0  0  0  0  0  0  0  0  0  0  0  0
   -7.5633   18.2564   27.3897 H   0  0  0  0  0  0  0  0  0  0  0  0
   -5.8039   17.3373   23.7318 H   0  0  0  0  0  0  0  0  0  0  0  0
   -5.2288   18.0637   21.4511 H   0  0  0  0  0  0  0  0  0  0  0  0
   -6.4994   17.2407   19.5079 H   0  0  0  0  0  0  0  0  0  0  0  0
   -8.1888   15.9522   18.7918 H   0  0  0  0  0  0  0  0  0  0  0  0
   -9.5388   14.3972   23.2506 H   0  0  0  0  0  0  0  0  0  0  0  0
   -9.1968   13.6979   21.6665 H   0  0  0  0  0  0  0  0  0  0  0  0
  -10.3036   15.0830   21.8204 H   0  0  0  0  0  0  0  0  0  0  0  0
   -3.6265   15.5508   26.7716 H   0  0  0  0  0  0  0  0  0  0  0  0
   -2.1267   16.5820   25.0958 H   0  0  0  0  0  0  0  0  0  0  0  0
   -2.6997   18.7759   24.0947 H   0  0  0  0  0  0  0  0  0  0  0  0
   -4.7816   19.9463   24.7727 H   0  0  0  0  0  0  0  0  0  0  0  0
   -6.2460   18.9507   26.4156 H   0  0  0  0  0  0  0  0  0  0  0  0
  -10.2958   14.5594   27.7327 H   0  0  0  0  0  0  0  0  0  0  0  0
  1  2  1  0  0  0  0
  1  6  1  0  0  0  0
  1 10  1  0  0  0  0
  1 41  1  6  0  0  0
  2  3  1  0  0  0  0
  2  9  1  0  0  0  0
  2 42  1  1  0  0  0
  3  4  1  0  0  0  0
  3 43  1  0  0  0  0
  3 44  1  0  0  0  0
  4  5  1  0  0  0  0
  4 45  1  0  0  0  0
  4 46  1  0  0  0  0
  5  6  1  0  0  0  0
  5 47  1  0  0  0  0
  5 48  1  0  0  0  0
  6 49  1  0  0  0  0
  6 50  1  0  0  0  0
  7  8  1  0  0  0  0
  7 10  1  0  0  0  0
  7 18  1  0  0  0  0
  7 86  1  6  0  0  0
  8  9  1  0  0  0  0
  8 11  1  0  0  0  0
  8 51  1  1  0  0  0
  9 52  1  0  0  0  0
  9 53  1  0  0  0  0
 10 54  1  0  0  0  0
 10 55  1  0  0  0  0
 11 12  1  0  0  0  0
 11 17  2  0  0  0  0
 12 13  1  0  0  0  0
 12 56  1  0  0  0  0
 13 14  1  0  0  0  0
 13 15  1  0  0  0  0
 13 16  1  0  0  0  0
 14 57  1  0  0  0  0
 14 58  1  0  0  0  0
 14 59  1  0  0  0  0
 15 60  1  0  0  0  0
 15 61  1  0  0  0  0
 15 62  1  0  0  0  0
 16 63  1  0  0  0  0
 16 64  1  0  0  0  0
 16 65  1  0  0  0  0
 18 19  1  0  0  0  0
 18 66  1  0  0  0  0
 18 67  1  0  0  0  0
 19 20  1  0  0  0  0
 19 21  1  0  0  0  0
 19 68  1  6  0  0  0
 20 22  1  0  0  0  0
 20 23  1  0  0  0  0
 20 69  1  1  0  0  0
 21 70  1  0  0  0  0
 22 24  1  0  0  0  0
 22 71  1  0  0  0  0
 23 34  1  0  0  0  0
 23 72  1  0  0  0  0
 23 73  1  0  0  0  0
 24 25  2  0  0  0  0
 24 26  1  0  0  0  0
 26 27  2  0  0  0  0
 26 31  1  0  0  0  0
 27 28  1  0  0  0  0
 27 74  1  0  0  0  0
 28 29  2  0  0  0  0
 28 75  1  0  0  0  0
 29 30  1  0  0  0  0
 29 76  1  0  0  0  0
 30 31  2  0  0  0  0
 30 32  1  0  0  0  0
 31 33  1  0  0  0  0
 32 77  1  0  0  0  0
 33 78  1  0  0  0  0
 33 79  1  0  0  0  0
 33 80  1  0  0  0  0
 34 35  1  0  0  0  0
 35 36  2  0  0  0  0
 35 40  1  0  0  0  0
 36 37  1  0  0  0  0
 36 81  1  0  0  0  0
 37 38  2  0  0  0  0
 37 82  1  0  0  0  0
 38 39  1  0  0  0  0
 38 83  1  0  0  0  0
 39 40  2  0  0  0  0
 39 84  1  0  0  0  0
 40 85  1  0  0  0  0
M  CHG  1   7   1
M  END
$$$$
