22U
 OpenBabel04051920503D

 52 54  0  0  1  0  0  0  0  0999 V2000
   18.1758  -14.9552   24.7198 C   0  0  0  0  0  0  0  0  0  0  0  0
   16.3282  -15.7205   23.2389 N   0  3  0  0  0  0  0  0  0  0  0  0
   17.6568  -15.0062   23.2843 C   0  0  1  0  0  0  0  0  0  0  0  0
   17.4117  -13.6303   22.7324 C   0  0  0  0  0  0  0  0  0  0  0  0
   16.4687  -12.9748   23.1727 O   0  0  0  0  0  0  0  0  0  0  0  0
   18.1350  -13.1869   21.6618 N   0  0  0  0  0  0  0  0  0  0  0  0
   19.2244  -13.8821   20.9735 C   0  0  0  0  0  0  0  0  0  0  0  0
   19.9649  -12.7293   20.3350 C   0  0  0  0  0  0  0  0  0  0  0  0
   18.8353  -11.7745   19.9268 C   0  0  0  0  0  0  0  0  0  0  0  0
   17.8591  -11.8454   21.1029 C   0  0  1  0  0  0  0  0  0  0  0  0
   16.4040  -11.7578   20.6237 C   0  0  0  0  0  0  0  0  0  0  0  0
   15.7187  -10.6034   20.9031 N   0  0  0  0  0  0  0  0  0  0  0  0
   14.3643  -10.4328   20.3917 C   0  0  0  0  0  0  0  0  0  0  0  0
   13.3522  -10.3529   21.5040 C   0  0  0  0  0  0  0  0  0  0  0  0
   13.2883   -9.2605   22.3874 C   0  0  0  0  0  0  0  0  0  0  0  0
   12.3332   -9.2310   23.4096 C   0  0  0  0  0  0  0  0  0  0  0  0
   11.4410  -10.2921   23.5637 C   0  0  0  0  0  0  0  0  0  0  0  0
   11.5088  -11.3881   22.7049 C   0  0  0  0  0  0  0  0  0  0  0  0
   12.4446  -11.4086   21.6720 C   0  0  0  0  0  0  0  0  0  0  0  0
   15.8939  -12.7179   20.0034 O   0  0  0  0  0  0  0  0  0  0  0  0
   19.5538  -14.3306   24.8035 C   0  0  0  0  0  0  0  0  0  0  0  0
   20.6580  -14.8565   24.1279 C   0  0  0  0  0  0  0  0  0  0  0  0
   21.9103  -14.2365   24.2248 C   0  0  0  0  0  0  0  0  0  0  0  0
   22.0673  -13.0817   25.0005 C   0  0  0  0  0  0  0  0  0  0  0  0
   20.9966  -12.5956   25.7416 C   0  0  0  0  0  0  0  0  0  0  0  0
   19.7375  -13.1839   25.5941 C   0  0  0  0  0  0  0  0  0  0  0  0
   12.2487   -7.8991   24.5050 Cl  0  0  0  0  0  0  0  0  0  0  0  0
   18.2202  -15.9757   25.1313 H   0  0  0  0  0  0  0  0  0  0  0  0
   17.4761  -14.3835   25.3465 H   0  0  0  0  0  0  0  0  0  0  0  0
   15.9657  -15.7295   22.2737 H   0  0  0  0  0  0  0  0  0  0  0  0
   16.4021  -16.6792   23.5787 H   0  0  0  0  0  0  0  0  0  0  0  0
   18.3296  -15.5841   22.6548 H   0  0  0  0  0  0  0  0  0  0  0  0
   18.8065  -14.5803   20.2330 H   0  0  0  0  0  0  0  0  0  0  0  0
   19.8260  -14.4604   21.6728 H   0  0  0  0  0  0  0  0  0  0  0  0
   20.5705  -13.0541   19.4880 H   0  0  0  0  0  0  0  0  0  0  0  0
   20.6219  -12.2514   21.0780 H   0  0  0  0  0  0  0  0  0  0  0  0
   18.3584  -12.1246   18.9985 H   0  0  0  0  0  0  0  0  0  0  0  0
   19.1941  -10.7557   19.7655 H   0  0  0  0  0  0  0  0  0  0  0  0
   18.0458  -11.0671   21.8540 H   0  0  0  0  0  0  0  0  0  0  0  0
   16.1251   -9.8979   21.5134 H   0  0  0  0  0  0  0  0  0  0  0  0
   14.1267  -11.2765   19.7252 H   0  0  0  0  0  0  0  0  0  0  0  0
   14.3350   -9.5253   19.7800 H   0  0  0  0  0  0  0  0  0  0  0  0
   13.9807   -8.4303   22.2687 H   0  0  0  0  0  0  0  0  0  0  0  0
   10.6887  -10.2690   24.3472 H   0  0  0  0  0  0  0  0  0  0  0  0
   10.8322  -12.2304   22.8347 H   0  0  0  0  0  0  0  0  0  0  0  0
   12.4676  -12.2509   20.9849 H   0  0  0  0  0  0  0  0  0  0  0  0
   20.5603  -15.7344   23.4920 H   0  0  0  0  0  0  0  0  0  0  0  0
   22.7759  -14.6568   23.7164 H   0  0  0  0  0  0  0  0  0  0  0  0
   23.0279  -12.5703   25.0130 H   0  0  0  0  0  0  0  0  0  0  0  0
   21.1354  -11.7674   26.4392 H   0  0  0  0  0  0  0  0  0  0  0  0
   18.8849  -12.7308   26.0911 H   0  0  0  0  0  0  0  0  0  0  0  0
   15.6338  -15.2075   23.8033 H   0  0  0  0  0  0  0  0  0  0  0  0
  1  3  1  0  0  0  0
  1 21  1  0  0  0  0
  1 28  1  0  0  0  0
  1 29  1  0  0  0  0
  2  3  1  0  0  0  0
  2 30  1  0  0  0  0
  2 31  1  0  0  0  0
  2 52  1  0  0  0  0
  3  4  1  0  0  0  0
  3 32  1  6  0  0  0
  4  5  2  0  0  0  0
  4  6  1  0  0  0  0
  6  7  1  0  0  0  0
  6 10  1  0  0  0  0
  7  8  1  0  0  0  0
  7 33  1  0  0  0  0
  7 34  1  0  0  0  0
  8  9  1  0  0  0  0
  8 35  1  0  0  0  0
  8 36  1  0  0  0  0
  9 10  1  0  0  0  0
  9 37  1  0  0  0  0
  9 38  1  0  0  0  0
 10 11  1  0  0  0  0
 10 39  1  1  0  0  0
 11 12  1  0  0  0  0
 11 20  2  0  0  0  0
 12 13  1  0  0  0  0
 12 40  1  0  0  0  0
 13 14  1  0  0  0  0
 13 41  1  0  0  0  0
 13 42  1  0  0  0  0
 14 15  2  0  0  0  0
 14 19  1  0  0  0  0
 15 16  1  0  0  0  0
 15 43  1  0  0  0  0
 16 17  2  0  0  0  0
 16 27  1  0  0  0  0
 17 18  1  0  0  0  0
 17 44  1  0  0  0  0
 18 19  2  0  0  0  0
 18 45  1  0  0  0  0
 19 46  1  0  0  0  0
 21 22  2  0  0  0  0
 21 26  1  0  0  0  0
 22 23  1  0  0  0  0
 22 47  1  0  0  0  0
 23 24  2  0  0  0  0
 23 48  1  0  0  0  0
 24 25  1  0  0  0  0
 24 49  1  0  0  0  0
 25 26  2  0  0  0  0
 25 50  1  0  0  0  0
 26 51  1  0  0  0  0
M  CHG  1   2   1
M  END
$$$$
