283
 OpenBabel04051918373D

 37 38  0  0  1  0  0  0  0  0999 V2000
   46.0745   28.4764    2.5362 C   0  0  0  0  0  0  0  0  0  0  0  0
   45.1081   28.8141    1.5544 C   0  0  0  0  0  0  0  0  0  0  0  0
   43.3587   28.5061    3.1903 C   0  0  0  0  0  0  0  0  0  0  0  0
   44.3163   28.1799    4.1501 C   0  0  0  0  0  0  0  0  0  0  0  0
   45.6805   28.1620    3.8426 C   0  0  0  0  0  0  0  0  0  0  0  0
   46.4819   27.8322    4.9077 O   0  0  0  0  0  0  0  0  0  0  0  0
   47.9042   27.7275    4.7199 C   0  0  0  0  0  0  0  0  0  0  0  0
   48.5832   24.0100    3.0658 C   0  0  0  0  0  0  0  0  0  0  0  0
   48.4360   25.2809    3.6856 C   0  0  0  0  0  0  0  0  0  0  0  0
   48.2434   26.3798    4.1801 C   0  0  0  0  0  0  0  0  0  0  0  0
   43.7470   28.8518    1.9011 C   0  0  0  0  0  0  0  0  0  0  0  0
   42.9619   28.8213   -0.5471 O   0  0  0  0  0  0  0  0  0  0  0  0
   41.1798   28.7507    1.2244 O   0  0  0  0  0  0  0  0  0  0  0  0
   42.4402   29.2670    0.7127 S   0  0  0  0  0  0  0  0  0  0  0  0
   40.9046   31.5523    0.4199 C   0  0  0  0  0  0  0  0  0  0  0  0
   42.2929   31.0203    0.7582 N   0  0  0  0  0  0  0  0  0  0  0  0
   42.5171   31.6109    2.1127 C   0  0  0  0  0  0  0  0  0  0  0  0
   41.2098   31.3981    2.8470 C   0  0  1  0  0  0  0  0  0  0  0  0
   41.3066   32.0699    4.5423 S   0  0  0  0  0  0  0  0  0  0  0  0
   40.2526   31.9147    1.7855 C   0  0  0  0  0  0  0  0  0  0  0  0
   47.1259   28.4668    2.2569 H   0  0  0  0  0  0  0  0  0  0  0  0
   45.4258   29.0515    0.5351 H   0  0  0  0  0  0  0  0  0  0  0  0
   42.3066   28.5164    3.4556 H   0  0  0  0  0  0  0  0  0  0  0  0
   43.9836   27.9343    5.1553 H   0  0  0  0  0  0  0  0  0  0  0  0
   48.3825   27.9098    5.6988 H   0  0  0  0  0  0  0  0  0  0  0  0
   48.2507   28.5434    4.0767 H   0  0  0  0  0  0  0  0  0  0  0  0
   48.9971   23.2685    3.7450 H   0  0  0  0  0  0  0  0  0  0  0  0
   49.2431   24.0509    2.2102 H   0  0  0  0  0  0  0  0  0  0  0  0
   47.6511   23.6079    2.7032 H   0  0  0  0  0  0  0  0  0  0  0  0
   40.2786   30.8473   -0.1399 H   0  0  0  0  0  0  0  0  0  0  0  0
   40.9933   32.4682   -0.1918 H   0  0  0  0  0  0  0  0  0  0  0  0
   42.7372   32.6830    1.9904 H   0  0  0  0  0  0  0  0  0  0  0  0
   43.3534   31.1469    2.6048 H   0  0  0  0  0  0  0  0  0  0  0  0
   41.0136   30.3414    2.9991 H   0  0  0  0  0  0  0  0  0  0  0  0
   40.0926   31.7392    5.0095 H   0  0  0  0  0  0  0  0  0  0  0  0
   39.2885   31.4117    1.8618 H   0  0  0  0  0  0  0  0  0  0  0  0
   40.1275   32.9991    1.8489 H   0  0  0  0  0  0  0  0  0  0  0  0
  1  2  2  0  0  0  0
  1  5  1  0  0  0  0
  1 21  1  0  0  0  0
  2 11  1  0  0  0  0
  2 22  1  0  0  0  0
  3  4  1  0  0  0  0
  3 11  2  0  0  0  0
  3 23  1  0  0  0  0
  4  5  2  0  0  0  0
  4 24  1  0  0  0  0
  5  6  1  0  0  0  0
  6  7  1  0  0  0  0
  7 10  1  0  0  0  0
  7 25  1  0  0  0  0
  7 26  1  0  0  0  0
  8  9  1  0  0  0  0
  8 27  1  0  0  0  0
  8 28  1  0  0  0  0
  8 29  1  0  0  0  0
  9 10  3  0  0  0  0
 11 14  1  0  0  0  0
 12 14  2  0  0  0  0
 13 14  2  0  0  0  0
 14 16  1  0  0  0  0
 15 16  1  0  0  0  0
 15 20  1  0  0  0  0
 15 30  1  0  0  0  0
 15 31  1  0  0  0  0
 16 17  1  0  0  0  0
 17 18  1  0  0  0  0
 17 32  1  0  0  0  0
 17 33  1  0  0  0  0
 18 19  1  0  0  0  0
 18 20  1  0  0  0  0
 18 34  1  1  0  0  0
 19 35  1  0  0  0  0
 20 36  1  0  0  0  0
 20 37  1  0  0  0  0
M  END
$$$$
