2AN
 OpenBabel04051917193D

 33 35  0  0  0  0  0  0  0  0999 V2000
    6.8765   30.9638   17.7768 C   0  0  0  0  0  0  0  0  0  0  0  0
    6.4978   32.3133   18.0015 C   0  0  0  0  0  0  0  0  0  0  0  0
    5.4522   32.9081   17.3078 C   0  0  0  0  0  0  0  0  0  0  0  0
    4.7929   32.1708   16.3628 C   0  0  0  0  0  0  0  0  0  0  0  0
    5.1317   30.8312   16.0782 C   0  0  0  0  0  0  0  0  0  0  0  0
    4.3674   30.1904   15.0987 C   0  0  0  0  0  0  0  0  0  0  0  0
    4.6020   28.8749   14.7405 C   0  0  0  0  0  0  0  0  0  0  0  0
    5.6212   28.1804   15.3684 C   0  0  0  0  0  0  0  0  0  0  0  0
    7.9491   30.4948   18.5624 N   0  0  0  0  0  0  0  0  0  0  0  0
    7.6959   27.5815   17.0391 S   0  0  0  0  0  0  0  0  0  0  0  0
    6.4230   28.7680   16.3689 C   0  0  0  0  0  0  0  0  0  0  0  0
    6.2176   30.1518   16.7808 C   0  0  0  0  0  0  0  0  0  0  0  0
    7.9873   30.2538   19.9507 C   0  0  0  0  0  0  0  0  0  0  0  0
    8.9575   29.3739   20.4508 C   0  0  0  0  0  0  0  0  0  0  0  0
    9.0066   29.0421   21.8060 C   0  0  0  0  0  0  0  0  0  0  0  0
    8.0848   29.5886   22.6916 C   0  0  0  0  0  0  0  0  0  0  0  0
    7.1038   30.4546   22.2171 C   0  0  0  0  0  0  0  0  0  0  0  0
    7.0464   30.7694   20.8552 C   0  0  0  0  0  0  0  0  0  0  0  0
    8.9693   28.2375   16.7663 O   0  0  0  0  0  0  0  0  0  0  0  0
    7.3312   27.4223   18.4417 O   0  0  0  0  0  0  0  0  0  0  0  0
    7.4768   26.3595   16.2551 O   0  0  0  0  0  0  0  0  0  0  0  0
    7.0320   32.8933   18.7491 H   0  0  0  0  0  0  0  0  0  0  0  0
    5.1802   33.9392   17.5210 H   0  0  0  0  0  0  0  0  0  0  0  0
    3.9568   32.6565   15.8272 H   0  0  0  0  0  0  0  0  0  0  0  0
    3.5549   30.7170   14.5956 H   0  0  0  0  0  0  0  0  0  0  0  0
    4.0071   28.3831   13.9815 H   0  0  0  0  0  0  0  0  0  0  0  0
    5.7865   27.1475   15.0762 H   0  0  0  0  0  0  0  0  0  0  0  0
    8.7865   30.2321   18.0432 H   0  0  0  0  0  0  0  0  0  0  0  0
    9.6601   28.9007   19.7673 H   0  0  0  0  0  0  0  0  0  0  0  0
    9.7604   28.3465   22.1606 H   0  0  0  0  0  0  0  0  0  0  0  0
    8.1288   29.3276   23.7424 H   0  0  0  0  0  0  0  0  0  0  0  0
    6.3817   30.8807   22.9074 H   0  0  0  0  0  0  0  0  0  0  0  0
    6.2628   31.4396   20.5169 H   0  0  0  0  0  0  0  0  0  0  0  0
  1 12  2  0  0  0  0
  1  9  1  0  0  0  0
  1  2  1  0  0  0  0
  2  3  2  0  0  0  0
  2 22  1  0  0  0  0
  3  4  1  0  0  0  0
  3 23  1  0  0  0  0
  4  5  2  0  0  0  0
  4 24  1  0  0  0  0
  5 12  1  0  0  0  0
  5  6  1  0  0  0  0
  6  7  2  0  0  0  0
  6 25  1  0  0  0  0
  7  8  1  0  0  0  0
  7 26  1  0  0  0  0
  8 11  2  0  0  0  0
  8 27  1  0  0  0  0
  9 13  1  0  0  0  0
  9 28  1  0  0  0  0
 10 11  1  0  0  0  0
 10 19  2  0  0  0  0
 10 20  2  0  0  0  0
 10 21  1  0  0  0  0
 11 12  1  0  0  0  0
 13 18  2  0  0  0  0
 13 14  1  0  0  0  0
 14 15  2  0  0  0  0
 14 29  1  0  0  0  0
 15 16  1  0  0  0  0
 15 30  1  0  0  0  0
 16 17  2  0  0  0  0
 16 31  1  0  0  0  0
 17 18  1  0  0  0  0
 17 32  1  0  0  0  0
 18 33  1  0  0  0  0
M  END
$$$$
