2DL
 OpenBabel04051920233D

 33 33  0  0  0  0  0  0  0  0999 V2000
   64.9953   33.1418   27.6988 C   0  0  0  0  0  0  0  0  0  0  0  0
   66.1022   33.4622   26.9105 C   0  0  0  0  0  0  0  0  0  0  0  0
   65.8941   34.1530   25.7181 C   0  0  0  0  0  0  0  0  0  0  0  0
   64.6039   34.5565   25.3352 C   0  0  0  0  0  0  0  0  0  0  0  0
   63.5113   34.2614   26.1471 C   0  0  0  0  0  0  0  0  0  0  0  0
   63.7056   33.5452   27.3353 C   0  0  0  0  0  0  0  0  0  0  0  0
   65.1953   32.4793   28.8779 O   0  0  0  0  0  0  0  0  0  0  0  0
   65.1113   38.5487   25.2584 C   0  0  0  0  0  0  0  0  0  0  0  0
   65.7405   37.1919   25.0724 C   0  0  0  0  0  0  0  0  0  0  0  0
   65.2701   37.1437   22.6147 C   0  0  0  0  0  0  0  0  0  0  0  0
   66.7084   37.4134   22.2206 C   0  0  0  0  0  0  0  0  0  0  0  0
   64.4465   35.3259   24.0738 C   0  0  0  0  0  0  0  0  0  0  0  0
   63.6918   34.8608   23.2103 O   0  0  0  0  0  0  0  0  0  0  0  0
   67.3318   33.0254   27.3218 O   0  0  0  0  0  0  0  0  0  0  0  0
   65.1883   36.4803   23.9175 N   0  0  0  0  0  0  0  0  0  0  0  0
   68.4359   33.8595   26.9821 C   0  0  0  0  0  0  0  0  0  0  0  0
   66.7290   34.4118   25.0833 H   0  0  0  0  0  0  0  0  0  0  0  0
   62.5143   34.5833   25.8613 H   0  0  0  0  0  0  0  0  0  0  0  0
   62.8514   33.3176   27.9639 H   0  0  0  0  0  0  0  0  0  0  0  0
   64.6851   31.6506   28.8449 H   0  0  0  0  0  0  0  0  0  0  0  0
   65.5537   39.0434   26.1237 H   0  0  0  0  0  0  0  0  0  0  0  0
   64.0322   38.4518   25.4089 H   0  0  0  0  0  0  0  0  0  0  0  0
   65.2872   39.1760   24.3820 H   0  0  0  0  0  0  0  0  0  0  0  0
   65.5705   36.6238   25.9804 H   0  0  0  0  0  0  0  0  0  0  0  0
   66.8155   37.2911   24.9310 H   0  0  0  0  0  0  0  0  0  0  0  0
   64.7978   36.5281   21.8406 H   0  0  0  0  0  0  0  0  0  0  0  0
   64.7253   38.0901   22.6668 H   0  0  0  0  0  0  0  0  0  0  0  0
   66.7487   37.9282   21.2584 H   0  0  0  0  0  0  0  0  0  0  0  0
   67.2612   36.4721   22.1482 H   0  0  0  0  0  0  0  0  0  0  0  0
   67.2012   38.0463   22.9639 H   0  0  0  0  0  0  0  0  0  0  0  0
   69.3508   33.4103   27.3826 H   0  0  0  0  0  0  0  0  0  0  0  0
   68.3213   34.8545   27.4248 H   0  0  0  0  0  0  0  0  0  0  0  0
   68.5600   33.9436   25.8999 H   0  0  0  0  0  0  0  0  0  0  0  0
  1  2  2  0  0  0  0
  1  6  1  0  0  0  0
  1  7  1  0  0  0  0
  2  3  1  0  0  0  0
  2 14  1  0  0  0  0
  3  4  2  0  0  0  0
  3 17  1  0  0  0  0
  4  5  1  0  0  0  0
  4 12  1  0  0  0  0
  5  6  2  0  0  0  0
  5 18  1  0  0  0  0
  6 19  1  0  0  0  0
  7 20  1  0  0  0  0
  8  9  1  0  0  0  0
  8 21  1  0  0  0  0
  8 22  1  0  0  0  0
  8 23  1  0  0  0  0
  9 15  1  0  0  0  0
  9 24  1  0  0  0  0
  9 25  1  0  0  0  0
 10 11  1  0  0  0  0
 10 15  1  0  0  0  0
 10 26  1  0  0  0  0
 10 27  1  0  0  0  0
 11 28  1  0  0  0  0
 11 29  1  0  0  0  0
 11 30  1  0  0  0  0
 12 13  2  0  0  0  0
 12 15  1  0  0  0  0
 14 16  1  0  0  0  0
 16 31  1  0  0  0  0
 16 32  1  0  0  0  0
 16 33  1  0  0  0  0
M  END
$$$$
