2KT
 OpenBabel04051919303D

 12 11  0  0  0  0  0  0  0  0999 V2000
   -0.6449   19.0709   22.4827 C   0  0  0  0  0  0  0  0  0  0  0  0
    0.0113   18.6998   23.7981 C   0  0  0  0  0  0  0  0  0  0  0  0
    1.1962   17.8246   23.5528 C   0  0  0  0  0  0  0  0  0  0  0  0
    1.5836   17.4563   22.4545 O   0  0  0  0  0  0  0  0  0  0  0  0
    1.9894   17.3761   24.7712 C   0  0  0  0  0  0  0  0  0  0  0  0
    1.2916   16.9545   25.7502 O   0  0  0  0  0  0  0  0  0  0  0  0
    3.2462   17.5394   24.7226 O   0  0  0  0  0  0  0  0  0  0  0  0
   -1.5091   19.7063   22.6873 H   0  0  0  0  0  0  0  0  0  0  0  0
   -0.9748   18.1747   21.9481 H   0  0  0  0  0  0  0  0  0  0  0  0
    0.0545   19.6120   21.8365 H   0  0  0  0  0  0  0  0  0  0  0  0
   -0.6942   18.1437   24.4215 H   0  0  0  0  0  0  0  0  0  0  0  0
    0.3613   19.6030   24.3062 H   0  0  0  0  0  0  0  0  0  0  0  0
  1  2  1  0  0  0  0
  1  8  1  0  0  0  0
  1  9  1  0  0  0  0
  1 10  1  0  0  0  0
  2  3  1  0  0  0  0
  2 11  1  0  0  0  0
  2 12  1  0  0  0  0
  3  4  2  0  0  0  0
  3  5  1  0  0  0  0
  5  6  2  0  0  0  0
  5  7  1  0  0  0  0
M  END
$$$$
