32U
 OpenBabel04051920513D

 58 60  0  0  1  0  0  0  0  0999 V2000
   18.5382  -13.4984   21.7520 N   0  0  0  0  0  0  0  0  0  0  0  0
   18.4189  -12.2028   21.0742 C   0  0  2  0  0  0  0  0  0  0  0  0
   17.0559  -12.1496   20.3877 C   0  0  0  0  0  0  0  0  0  0  0  0
   16.5558  -13.1532   19.8787 O   0  0  0  0  0  0  0  0  0  0  0  0
   16.4423  -10.9175   20.3687 N   0  0  0  0  0  0  0  0  0  0  0  0
   15.1304  -10.7954   19.7746 C   0  0  0  0  0  0  0  0  0  0  0  0
   14.0443  -10.8079   20.8256 C   0  0  0  0  0  0  0  0  0  0  0  0
   13.6137  -12.0079   21.4020 C   0  0  0  0  0  0  0  0  0  0  0  0
   12.6095  -12.0207   22.3846 C   0  0  0  0  0  0  0  0  0  0  0  0
   11.9997  -10.8313   22.8261 C   0  0  0  0  0  0  0  0  0  0  0  0
   10.9292  -10.8237   23.8658 C   0  0  0  0  0  0  0  0  0  0  0  0
   10.6270   -9.7250   24.5152 N   0  0  0  0  0  0  0  0  0  0  0  0
   10.2615  -11.9262   24.1619 N   0  0  0  0  0  0  0  0  0  0  0  0
   12.4461   -9.6346   22.2316 C   0  0  0  0  0  0  0  0  0  0  0  0
   13.4545   -9.6213   21.2560 C   0  0  0  0  0  0  0  0  0  0  0  0
   19.5261  -12.2383   20.0174 C   0  0  0  0  0  0  0  0  0  0  0  0
   20.5759  -13.1421   20.6457 C   0  0  0  0  0  0  0  0  0  0  0  0
   19.7295  -14.2116   21.3071 C   0  0  0  0  0  0  0  0  0  0  0  0
   17.6377  -13.8780   22.7160 C   0  0  0  0  0  0  0  0  0  0  0  0
   17.7725  -15.2884   23.2987 C   0  0  2  0  0  0  0  0  0  0  0  0
   16.4317  -15.9754   23.2294 N   0  3  0  0  0  0  0  0  0  0  0  0
   18.2157  -15.1908   24.7623 C   0  0  0  0  0  0  0  0  0  0  0  0
   16.6759  -13.1870   23.0676 O   0  0  0  0  0  0  0  0  0  0  0  0
   19.6342  -14.6940   24.8775 C   0  0  0  0  0  0  0  0  0  0  0  0
   20.7089  -15.5105   24.4939 C   0  0  0  0  0  0  0  0  0  0  0  0
   22.0140  -15.0192   24.5280 C   0  0  0  0  0  0  0  0  0  0  0  0
   22.2591  -13.7208   24.9680 C   0  0  0  0  0  0  0  0  0  0  0  0
   21.1999  -12.9065   25.3623 C   0  0  0  0  0  0  0  0  0  0  0  0
   19.8914  -13.3863   25.3111 C   0  0  0  0  0  0  0  0  0  0  0  0
   18.5539  -11.4068   21.8133 H   0  0  0  0  0  0  0  0  0  0  0  0
   16.7892  -10.1596   20.9381 H   0  0  0  0  0  0  0  0  0  0  0  0
   14.9608  -11.6144   19.0664 H   0  0  0  0  0  0  0  0  0  0  0  0
   15.1165   -9.8692   19.1920 H   0  0  0  0  0  0  0  0  0  0  0  0
   14.0676  -12.9450   21.0797 H   0  0  0  0  0  0  0  0  0  0  0  0
   12.3343  -12.9888   22.7935 H   0  0  0  0  0  0  0  0  0  0  0  0
    9.8997   -9.6800   25.2121 H   0  0  0  0  0  0  0  0  0  0  0  0
   10.4239  -12.7946   23.6731 H   0  0  0  0  0  0  0  0  0  0  0  0
    9.5282  -11.9364   24.8591 H   0  0  0  0  0  0  0  0  0  0  0  0
   12.0151   -8.6719   22.4944 H   0  0  0  0  0  0  0  0  0  0  0  0
   13.7669   -8.6711   20.8234 H   0  0  0  0  0  0  0  0  0  0  0  0
   19.9110  -11.2438   19.7721 H   0  0  0  0  0  0  0  0  0  0  0  0
   19.1684  -12.6952   19.0852 H   0  0  0  0  0  0  0  0  0  0  0  0
   21.1321  -12.5868   21.4106 H   0  0  0  0  0  0  0  0  0  0  0  0
   21.2873  -13.5556   19.9268 H   0  0  0  0  0  0  0  0  0  0  0  0
   19.4271  -14.9967   20.6081 H   0  0  0  0  0  0  0  0  0  0  0  0
   20.2505  -14.6725   22.1392 H   0  0  0  0  0  0  0  0  0  0  0  0
   18.4334  -15.9201   22.7044 H   0  0  0  0  0  0  0  0  0  0  0  0
   16.4482  -16.9080   23.6566 H   0  0  0  0  0  0  0  0  0  0  0  0
   15.7203  -15.3898   23.6880 H   0  0  0  0  0  0  0  0  0  0  0  0
   18.1486  -16.1724   25.2466 H   0  0  0  0  0  0  0  0  0  0  0  0
   17.5449  -14.5268   25.3245 H   0  0  0  0  0  0  0  0  0  0  0  0
   20.5484  -16.5238   24.1313 H   0  0  0  0  0  0  0  0  0  0  0  0
   22.8449  -15.6479   24.2138 H   0  0  0  0  0  0  0  0  0  0  0  0
   23.2798  -13.3463   25.0146 H   0  0  0  0  0  0  0  0  0  0  0  0
   21.3984  -11.8975   25.7180 H   0  0  0  0  0  0  0  0  0  0  0  0
   19.0826  -12.7247   25.6161 H   0  0  0  0  0  0  0  0  0  0  0  0
   11.1216   -8.8526   24.3543 H   0  0  0  0  0  0  0  0  0  0  0  0
   16.1432  -16.0674   22.2443 H   0  0  0  0  0  0  0  0  0  0  0  0
  1  2  1  0  0  0  0
  1 18  1  0  0  0  0
  1 19  1  0  0  0  0
  2  3  1  0  0  0  0
  2 16  1  0  0  0  0
  2 30  1  1  0  0  0
  3  4  2  0  0  0  0
  3  5  1  0  0  0  0
  5  6  1  0  0  0  0
  5 31  1  0  0  0  0
  6  7  1  0  0  0  0
  6 32  1  0  0  0  0
  6 33  1  0  0  0  0
  7  8  2  0  0  0  0
  7 15  1  0  0  0  0
  8  9  1  0  0  0  0
  8 34  1  0  0  0  0
  9 10  2  0  0  0  0
  9 35  1  0  0  0  0
 10 11  1  0  0  0  0
 10 14  1  0  0  0  0
 11 12  2  0  0  0  0
 11 13  1  0  0  0  0
 12 36  1  0  0  0  0
 12 57  1  0  0  0  0
 13 37  1  0  0  0  0
 13 38  1  0  0  0  0
 14 15  2  0  0  0  0
 14 39  1  0  0  0  0
 15 40  1  0  0  0  0
 16 17  1  0  0  0  0
 16 41  1  0  0  0  0
 16 42  1  0  0  0  0
 17 18  1  0  0  0  0
 17 43  1  0  0  0  0
 17 44  1  0  0  0  0
 18 45  1  0  0  0  0
 18 46  1  0  0  0  0
 19 20  1  0  0  0  0
 19 23  2  0  0  0  0
 20 21  1  0  0  0  0
 20 22  1  0  0  0  0
 20 47  1  6  0  0  0
 21 48  1  0  0  0  0
 21 49  1  0  0  0  0
 21 58  1  0  0  0  0
 22 24  1  0  0  0  0
 22 50  1  0  0  0  0
 22 51  1  0  0  0  0
 24 25  2  0  0  0  0
 24 29  1  0  0  0  0
 25 26  1  0  0  0  0
 25 52  1  0  0  0  0
 26 27  2  0  0  0  0
 26 53  1  0  0  0  0
 27 28  1  0  0  0  0
 27 54  1  0  0  0  0
 28 29  2  0  0  0  0
 28 55  1  0  0  0  0
 29 56  1  0  0  0  0
M  CHG  1  21   1
M  END
$$$$
