37A
 OpenBabel04051918113D

 49 52  0  0  1  0  0  0  0  0999 V2000
    0.5281   -5.8365    5.5975 O   0  0  0  0  0  0  0  0  0  0  0  0
    1.4932   -6.2909    5.0268 C   0  0  0  0  0  0  0  0  0  0  0  0
    1.3460   -7.1627    3.7697 C   0  0  2  0  0  0  0  0  0  0  0  0
    2.6226   -7.5761    3.2395 O   0  0  0  0  0  0  0  0  0  0  0  0
    0.6820   -6.3980    2.6456 C   0  0  2  0  0  0  0  0  0  0  0  0
    0.0089   -7.4132    1.7192 C   0  0  0  0  0  0  0  0  0  0  0  0
    0.9943   -8.3988    1.2440 N   0  0  0  0  0  0  0  0  0  0  0  0
    0.8122   -9.7486    1.2544 C   0  0  0  0  0  0  0  0  0  0  0  0
    1.3887  -10.4233    0.4018 O   0  0  0  0  0  0  0  0  0  0  0  0
    0.0783  -10.2905    2.2367 N   0  0  0  0  0  0  0  0  0  0  0  0
   -0.1342  -11.6778    2.1663 O   0  0  0  0  0  0  0  0  0  0  0  0
    2.3075   -7.8621    0.8369 C   0  0  0  0  0  0  0  0  0  0  0  0
    1.8027   -5.8118    1.9524 O   0  0  0  0  0  0  0  0  0  0  0  0
    2.7435   -6.9064    1.9598 C   0  0  1  0  0  0  0  0  0  0  0  0
    2.7853   -6.1275    5.4367 N   0  0  0  0  0  0  0  0  0  0  0  0
    3.1549   -5.3711    6.6088 C   0  0  0  0  0  0  0  0  0  0  0  0
    4.3532   -5.9957    7.2691 C   0  0  0  0  0  0  0  0  0  0  0  0
    4.2998   -6.4413    8.5919 C   0  0  0  0  0  0  0  0  0  0  0  0
    5.4235   -7.0170    9.1856 C   0  0  0  0  0  0  0  0  0  0  0  0
    6.6301   -7.1731    8.4789 C   0  0  0  0  0  0  0  0  0  0  0  0
    6.6650   -6.7255    7.1522 C   0  0  0  0  0  0  0  0  0  0  0  0
    5.5504   -6.1403    6.5594 C   0  0  0  0  0  0  0  0  0  0  0  0
    7.8053   -7.8006    9.1020 C   0  0  0  0  0  0  0  0  0  0  0  0
    9.1177   -7.4517    8.7359 C   0  0  0  0  0  0  0  0  0  0  0  0
   10.2198   -8.0630    9.3328 C   0  0  0  0  0  0  0  0  0  0  0  0
    7.6451   -8.7898   10.0846 C   0  0  0  0  0  0  0  0  0  0  0  0
    8.7410   -9.3991   10.6876 C   0  0  0  0  0  0  0  0  0  0  0  0
   10.0355   -9.0359   10.3130 C   0  0  0  0  0  0  0  0  0  0  0  0
    0.7443   -8.0309    4.0691 H   0  0  0  0  0  0  0  0  0  0  0  0
   -0.0176   -5.6219    2.9709 H   0  0  0  0  0  0  0  0  0  0  0  0
   -0.3923   -6.9068    0.8357 H   0  0  0  0  0  0  0  0  0  0  0  0
   -0.8106   -7.9178    2.2350 H   0  0  0  0  0  0  0  0  0  0  0  0
   -0.2602   -9.7522    3.0166 H   0  0  0  0  0  0  0  0  0  0  0  0
   -0.6816  -11.9005    2.9377 H   0  0  0  0  0  0  0  0  0  0  0  0
    2.1928   -7.3236   -0.1116 H   0  0  0  0  0  0  0  0  0  0  0  0
    3.0440   -8.6681    0.7100 H   0  0  0  0  0  0  0  0  0  0  0  0
    3.7660   -6.5540    1.8098 H   0  0  0  0  0  0  0  0  0  0  0  0
    3.5073   -6.5664    4.8750 H   0  0  0  0  0  0  0  0  0  0  0  0
    2.3088   -5.3304    7.3021 H   0  0  0  0  0  0  0  0  0  0  0  0
    3.3973   -4.3476    6.2981 H   0  0  0  0  0  0  0  0  0  0  0  0
    3.3820   -6.3398    9.1706 H   0  0  0  0  0  0  0  0  0  0  0  0
    5.3578   -7.3478   10.2212 H   0  0  0  0  0  0  0  0  0  0  0  0
    7.5732   -6.8417    6.5648 H   0  0  0  0  0  0  0  0  0  0  0  0
    5.6139   -5.7923    5.5300 H   0  0  0  0  0  0  0  0  0  0  0  0
    9.2867   -6.6898    7.9777 H   0  0  0  0  0  0  0  0  0  0  0  0
   11.2288   -7.7795    9.0361 H   0  0  0  0  0  0  0  0  0  0  0  0
    6.6444   -9.0980   10.3776 H   0  0  0  0  0  0  0  0  0  0  0  0
    8.5882  -10.1597   11.4492 H   0  0  0  0  0  0  0  0  0  0  0  0
   10.8868   -9.5113   10.7800 H   0  0  0  0  0  0  0  0  0  0  0  0
  1  2  2  0  0  0  0
  2  3  1  0  0  0  0
  2 15  1  0  0  0  0
  3  4  1  0  0  0  0
  3  5  1  0  0  0  0
  3 29  1  1  0  0  0
  4 14  1  0  0  0  0
  5  6  1  0  0  0  0
  5 13  1  0  0  0  0
  5 30  1  1  0  0  0
  6  7  1  0  0  0  0
  6 31  1  0  0  0  0
  6 32  1  0  0  0  0
  7  8  1  0  0  0  0
  7 12  1  0  0  0  0
  8  9  2  0  0  0  0
  8 10  1  0  0  0  0
 10 11  1  0  0  0  0
 10 33  1  0  0  0  0
 11 34  1  0  0  0  0
 12 14  1  0  0  0  0
 12 35  1  0  0  0  0
 12 36  1  0  0  0  0
 13 14  1  0  0  0  0
 14 37  1  6  0  0  0
 15 16  1  0  0  0  0
 15 38  1  0  0  0  0
 16 17  1  0  0  0  0
 16 39  1  0  0  0  0
 16 40  1  0  0  0  0
 17 18  2  0  0  0  0
 17 22  1  0  0  0  0
 18 19  1  0  0  0  0
 18 41  1  0  0  0  0
 19 20  2  0  0  0  0
 19 42  1  0  0  0  0
 20 21  1  0  0  0  0
 20 23  1  0  0  0  0
 21 22  2  0  0  0  0
 21 43  1  0  0  0  0
 22 44  1  0  0  0  0
 23 24  2  0  0  0  0
 23 26  1  0  0  0  0
 24 25  1  0  0  0  0
 24 45  1  0  0  0  0
 25 28  2  0  0  0  0
 25 46  1  0  0  0  0
 26 27  2  0  0  0  0
 26 47  1  0  0  0  0
 27 28  1  0  0  0  0
 27 48  1  0  0  0  0
 28 49  1  0  0  0  0
M  END
$$$$
