3C4
 OpenBabel04051918083D

 18 18  0  0  0  0  0  0  0  0999 V2000
   60.4994   83.3674   11.3285 O   0  0  0  0  0  0  0  0  0  0  0  0
   61.4845   83.2552   12.1275 C   0  0  0  0  0  0  0  0  0  0  0  0
   62.5526   82.6083   11.9641 O   0  0  0  0  0  0  0  0  0  0  0  0
   61.3106   84.0397   13.4275 C   0  0  0  0  0  0  0  0  0  0  0  0
   62.3908   83.8988   14.4699 C   0  0  0  0  0  0  0  0  0  0  0  0
   63.6321   84.5205   14.2928 C   0  0  0  0  0  0  0  0  0  0  0  0
   64.6474   84.3873   15.2493 C   0  0  0  0  0  0  0  0  0  0  0  0
   64.4196   83.6158   16.3897 C   0  0  0  0  0  0  0  0  0  0  0  0
   65.4166   83.4668   17.3151 O   0  0  0  0  0  0  0  0  0  0  0  0
   62.8572   82.0544   17.9935 Cl  0  0  0  0  0  0  0  0  0  0  0  0
   63.1872   82.9886   16.5772 C   0  0  0  0  0  0  0  0  0  0  0  0
   62.1731   83.1332   15.6272 C   0  0  0  0  0  0  0  0  0  0  0  0
   60.3443   83.7472   13.8622 H   0  0  0  0  0  0  0  0  0  0  0  0
   61.2162   85.1036   13.1731 H   0  0  0  0  0  0  0  0  0  0  0  0
   63.8173   85.0821   13.3803 H   0  0  0  0  0  0  0  0  0  0  0  0
   65.6065   84.8594   15.0600 H   0  0  0  0  0  0  0  0  0  0  0  0
   65.7070   84.3549   17.5667 H   0  0  0  0  0  0  0  0  0  0  0  0
   61.2164   82.6459   15.7728 H   0  0  0  0  0  0  0  0  0  0  0  0
  1  2  2  0  0  0  0
  2  3  1  0  0  0  0
  2  4  1  0  0  0  0
  4  5  1  0  0  0  0
  4 13  1  0  0  0  0
  4 14  1  0  0  0  0
  5  6  2  0  0  0  0
  5 12  1  0  0  0  0
  6  7  1  0  0  0  0
  6 15  1  0  0  0  0
  7  8  2  0  0  0  0
  7 16  1  0  0  0  0
  8  9  1  0  0  0  0
  8 11  1  0  0  0  0
  9 17  1  0  0  0  0
 10 11  1  0  0  0  0
 11 12  2  0  0  0  0
 12 18  1  0  0  0  0
M  END
$$$$
