3IN
 OpenBabel04051917273D

108112  0  0  1  0  0  0  0  0999 V2000
    8.8866   24.4858    4.0967 C   0  0  0  0  0  0  0  0  0  0  0  0
   10.1802   25.2011    4.5392 C   0  0  1  0  0  0  0  0  0  0  0  0
   10.2259   25.1491    6.0603 C   0  0  0  0  0  0  0  0  0  0  0  0
   18.5243   20.1501    5.0432 O   0  0  0  0  0  0  0  0  0  0  0  0
    7.8658   25.5023    0.7903 O   0  0  0  0  0  0  0  0  0  0  0  0
    5.7558   24.5003    3.3381 N   0  0  0  0  0  0  0  0  0  0  0  0
    8.7120   25.6375    8.7084 C   0  0  0  0  0  0  0  0  0  0  0  0
   11.2635   24.5533    2.3729 C   0  0  0  0  0  0  0  0  0  0  0  0
    9.9284   23.9519    1.9252 C   0  0  0  0  0  0  0  0  0  0  0  0
   12.6993   25.2750    4.2353 C   0  0  0  0  0  0  0  0  0  0  0  0
   13.8432   24.3445    4.6393 C   0  0  2  0  0  0  0  0  0  0  0  0
   13.8389   23.9435    6.1084 C   0  0  0  0  0  0  0  0  0  0  0  0
   15.0377   23.0234    6.4263 C   0  0  1  0  0  0  0  0  0  0  0  0
   15.0921   22.8476    7.9477 C   0  0  0  0  0  0  0  0  0  0  0  0
   16.1469   21.8941    8.4268 C   0  0  0  0  0  0  0  0  0  0  0  0
   17.5103   22.1390    8.2254 C   0  0  0  0  0  0  0  0  0  0  0  0
   16.6880   19.8624    9.6234 C   0  0  0  0  0  0  0  0  0  0  0  0
   15.7426   20.7377    9.1047 C   0  0  0  0  0  0  0  0  0  0  0  0
   14.8460   21.6723    5.7302 C   0  0  0  0  0  0  0  0  0  0  0  0
   16.0943   19.7148    4.9361 C   0  0  2  0  0  0  0  0  0  0  0  0
   17.6795   17.9590    4.4101 C   0  0  0  0  0  0  0  0  0  0  0  0
    0.7196   27.7342    2.5415 C   0  0  0  0  0  0  0  0  0  0  0  0
   15.7143   19.0816    3.5698 C   0  0  2  0  0  0  0  0  0  0  0  0
    7.7227   25.1390    1.9472 C   0  0  0  0  0  0  0  0  0  0  0  0
    6.4076   25.4485    2.6176 C   0  0  0  0  0  0  0  0  0  0  0  0
    4.4781   24.8481    3.7070 C   0  0  0  0  0  0  0  0  0  0  0  0
    3.8596   26.0962    3.4314 C   0  0  0  0  0  0  0  0  0  0  0  0
    1.0951   27.9566    4.9814 C   0  0  0  0  0  0  0  0  0  0  0  0
    8.7684   24.5137    2.6439 N   0  0  0  0  0  0  0  0  0  0  0  0
   10.5818   24.1415    6.6322 O   0  0  0  0  0  0  0  0  0  0  0  0
    9.8501   26.3380    6.6474 N   0  0  0  0  0  0  0  0  0  0  0  0
    9.7751   26.5531    8.0944 C   0  0  0  0  0  0  0  0  0  0  0  0
    9.3807   28.0184    8.3359 C   0  0  0  0  0  0  0  0  0  0  0  0
   11.1388   26.3254    8.7517 C   0  0  0  0  0  0  0  0  0  0  0  0
   11.4154   24.5578    3.8859 N   0  3  1  0  0  0  0  0  0  0  0  0
   15.0557   25.0635    4.4084 O   0  0  0  0  0  0  0  0  0  0  0  0
   18.4570   21.2602    8.7498 C   0  0  0  0  0  0  0  0  0  0  0  0
   18.0440   20.1420    9.4745 C   0  0  0  0  0  0  0  0  0  0  0  0
   13.7582   21.0965    5.7332 O   0  0  0  0  0  0  0  0  0  0  0  0
   15.9590   21.1576    5.1005 N   0  0  0  0  0  0  0  0  0  0  0  0
   17.5049   19.1806    5.3040 C   0  0  1  0  0  0  0  0  0  0  0  0
   16.9786   18.3484    3.1171 C   0  0  0  0  0  0  0  0  0  0  0  0
   15.1741   19.9951    2.4821 C   0  0  0  0  0  0  0  0  0  0  0  0
    4.5714   27.0419    2.7837 N   0  0  0  0  0  0  0  0  0  0  0  0
    5.8330   26.6928    2.3675 C   0  0  0  0  0  0  0  0  0  0  0  0
    1.6454   26.4962    2.4899 C   0  0  0  0  0  0  0  0  0  0  0  0
    0.0318   27.8333    3.8993 N   0  3  1  0  0  0  0  0  0  0  0  0
    2.0139   26.7085    4.9962 C   0  0  0  0  0  0  0  0  0  0  0  0
    2.5256   26.3976    3.6620 N   0  0  0  0  0  0  0  0  0  0  0  0
   -0.9649   28.9561    3.9765 C   0  0  0  0  0  0  0  0  0  0  0  0
    3.6122   23.5675    4.4733 Cl  0  0  0  0  0  0  0  0  0  0  0  0
    8.8992   23.4327    4.3984 H   0  0  0  0  0  0  0  0  0  0  0  0
    8.0242   24.9670    4.5654 H   0  0  0  0  0  0  0  0  0  0  0  0
   10.1809   26.2444    4.1996 H   0  0  0  0  0  0  0  0  0  0  0  0
   19.3829   19.7188    5.2219 H   0  0  0  0  0  0  0  0  0  0  0  0
    8.6374   25.7914    9.7921 H   0  0  0  0  0  0  0  0  0  0  0  0
    8.9381   24.5804    8.5400 H   0  0  0  0  0  0  0  0  0  0  0  0
    7.7269   25.8311    8.2678 H   0  0  0  0  0  0  0  0  0  0  0  0
   12.1187   23.9981    1.9736 H   0  0  0  0  0  0  0  0  0  0  0  0
   11.3233   25.6022    2.0560 H   0  0  0  0  0  0  0  0  0  0  0  0
    9.9464   22.8792    2.1419 H   0  0  0  0  0  0  0  0  0  0  0  0
    9.8381   24.0838    0.8435 H   0  0  0  0  0  0  0  0  0  0  0  0
   12.5045   26.0654    4.9658 H   0  0  0  0  0  0  0  0  0  0  0  0
   13.0180   25.7953    3.3237 H   0  0  0  0  0  0  0  0  0  0  0  0
   13.8485   23.4507    4.0068 H   0  0  0  0  0  0  0  0  0  0  0  0
   12.9051   23.4359    6.3703 H   0  0  0  0  0  0  0  0  0  0  0  0
   13.9072   24.8442    6.7347 H   0  0  0  0  0  0  0  0  0  0  0  0
   15.9720   23.4830    6.0860 H   0  0  0  0  0  0  0  0  0  0  0  0
   14.1114   22.5119    8.3121 H   0  0  0  0  0  0  0  0  0  0  0  0
   15.2661   23.8184    8.4333 H   0  0  0  0  0  0  0  0  0  0  0  0
   17.8487   23.0119    7.6718 H   0  0  0  0  0  0  0  0  0  0  0  0
   16.3658   18.9704   10.1523 H   0  0  0  0  0  0  0  0  0  0  0  0
   14.6844   20.5199    9.2383 H   0  0  0  0  0  0  0  0  0  0  0  0
   15.4134   19.2498    5.6551 H   0  0  0  0  0  0  0  0  0  0  0  0
   18.7243   17.6995    4.2191 H   0  0  0  0  0  0  0  0  0  0  0  0
   17.1696   17.0964    4.8556 H   0  0  0  0  0  0  0  0  0  0  0  0
   -0.0631   27.6674    1.7790 H   0  0  0  0  0  0  0  0  0  0  0  0
    1.2886   28.6607    2.4053 H   0  0  0  0  0  0  0  0  0  0  0  0
   14.9400   18.3236    3.7669 H   0  0  0  0  0  0  0  0  0  0  0  0
    0.5745   28.0764    5.9371 H   0  0  0  0  0  0  0  0  0  0  0  0
    1.6607   28.8687    4.7575 H   0  0  0  0  0  0  0  0  0  0  0  0
    9.5134   27.1070    6.0779 H   0  0  0  0  0  0  0  0  0  0  0  0
    9.3294   28.2400    9.4071 H   0  0  0  0  0  0  0  0  0  0  0  0
    8.4068   28.2488    7.8884 H   0  0  0  0  0  0  0  0  0  0  0  0
   10.1146   28.6963    7.8839 H   0  0  0  0  0  0  0  0  0  0  0  0
   11.0825   26.5139    9.8287 H   0  0  0  0  0  0  0  0  0  0  0  0
   11.8891   27.0008    8.3248 H   0  0  0  0  0  0  0  0  0  0  0  0
   11.4997   25.3024    8.6121 H   0  0  0  0  0  0  0  0  0  0  0  0
   15.1579   25.2332    3.4556 H   0  0  0  0  0  0  0  0  0  0  0  0
   19.5180   21.4480    8.6047 H   0  0  0  0  0  0  0  0  0  0  0  0
   18.7801   19.4866    9.9295 H   0  0  0  0  0  0  0  0  0  0  0  0
   16.8261   21.6904    5.0807 H   0  0  0  0  0  0  0  0  0  0  0  0
   17.5530   18.9132    6.3655 H   0  0  0  0  0  0  0  0  0  0  0  0
   17.6160   19.0185    2.5310 H   0  0  0  0  0  0  0  0  0  0  0  0
   16.7533   17.4658    2.5082 H   0  0  0  0  0  0  0  0  0  0  0  0
   14.2086   20.4202    2.7718 H   0  0  0  0  0  0  0  0  0  0  0  0
   15.0191   19.4414    1.5460 H   0  0  0  0  0  0  0  0  0  0  0  0
   15.8722   20.8094    2.2739 H   0  0  0  0  0  0  0  0  0  0  0  0
    6.3711   27.4645    1.8386 H   0  0  0  0  0  0  0  0  0  0  0  0
    1.0266   25.5915    2.4453 H   0  0  0  0  0  0  0  0  0  0  0  0
    2.2204   26.5377    1.5572 H   0  0  0  0  0  0  0  0  0  0  0  0
    2.8298   26.8992    5.7024 H   0  0  0  0  0  0  0  0  0  0  0  0
    1.4358   25.8561    5.3723 H   0  0  0  0  0  0  0  0  0  0  0  0
   -1.7214   28.8039    3.2026 H   0  0  0  0  0  0  0  0  0  0  0  0
   -0.4365   29.9020    3.8331 H   0  0  0  0  0  0  0  0  0  0  0  0
   -1.4328   28.9214    4.9651 H   0  0  0  0  0  0  0  0  0  0  0  0
   11.4575   23.5894    4.2567 H   0  0  0  0  0  0  0  0  0  0  0  0
   -0.4839   26.9555    4.0528 H   0  0  0  0  0  0  0  0  0  0  0  0
  1 29  1  0  0  0  0
  1  2  1  0  0  0  0
  1 52  1  0  0  0  0
  1 53  1  0  0  0  0
  2 35  1  0  0  0  0
  2  3  1  0  0  0  0
  2 54  1  6  0  0  0
  3 31  1  0  0  0  0
  3 30  2  0  0  0  0
  4 41  1  0  0  0  0
  4 55  1  0  0  0  0
  5 24  2  0  0  0  0
  6 25  2  0  0  0  0
  6 26  1  0  0  0  0
  7 32  1  0  0  0  0
  7 56  1  0  0  0  0
  7 57  1  0  0  0  0
  7 58  1  0  0  0  0
  8 35  1  0  0  0  0
  8  9  1  0  0  0  0
  8 59  1  0  0  0  0
  8 60  1  0  0  0  0
  9 29  1  0  0  0  0
  9 61  1  0  0  0  0
  9 62  1  0  0  0  0
 10 35  1  0  0  0  0
 10 11  1  0  0  0  0
 10 63  1  0  0  0  0
 10 64  1  0  0  0  0
 11 36  1  0  0  0  0
 11 12  1  0  0  0  0
 11 65  1  6  0  0  0
 12 13  1  0  0  0  0
 12 66  1  0  0  0  0
 12 67  1  0  0  0  0
 13 19  1  0  0  0  0
 13 14  1  0  0  0  0
 13 68  1  6  0  0  0
 14 15  1  0  0  0  0
 14 69  1  0  0  0  0
 14 70  1  0  0  0  0
 15 18  2  0  0  0  0
 15 16  1  0  0  0  0
 16 37  2  0  0  0  0
 16 71  1  0  0  0  0
 17 38  2  0  0  0  0
 17 18  1  0  0  0  0
 17 72  1  0  0  0  0
 18 73  1  0  0  0  0
 19 39  2  0  0  0  0
 19 40  1  0  0  0  0
 20 40  1  0  0  0  0
 20 41  1  0  0  0  0
 20 23  1  0  0  0  0
 20 74  1  1  0  0  0
 21 42  1  0  0  0  0
 21 41  1  0  0  0  0
 21 75  1  0  0  0  0
 21 76  1  0  0  0  0
 22 46  1  0  0  0  0
 22 47  1  0  0  0  0
 22 77  1  0  0  0  0
 22 78  1  0  0  0  0
 23 42  1  0  0  0  0
 23 43  1  0  0  0  0
 23 79  1  1  0  0  0
 24 29  1  0  0  0  0
 24 25  1  0  0  0  0
 25 45  1  0  0  0  0
 26 27  2  0  0  0  0
 26 51  1  0  0  0  0
 27 44  1  0  0  0  0
 27 49  1  0  0  0  0
 28 47  1  0  0  0  0
 28 48  1  0  0  0  0
 28 80  1  0  0  0  0
 28 81  1  0  0  0  0
 31 32  1  0  0  0  0
 31 82  1  0  0  0  0
 32 34  1  0  0  0  0
 32 33  1  0  0  0  0
 33 83  1  0  0  0  0
 33 84  1  0  0  0  0
 33 85  1  0  0  0  0
 34 86  1  0  0  0  0
 34 87  1  0  0  0  0
 34 88  1  0  0  0  0
 35107  1  1  0  0  0
 36 89  1  0  0  0  0
 37 38  1  0  0  0  0
 37 90  1  0  0  0  0
 38 91  1  0  0  0  0
 40 92  1  0  0  0  0
 41 93  1  1  0  0  0
 42 94  1  0  0  0  0
 42 95  1  0  0  0  0
 43 96  1  0  0  0  0
 43 97  1  0  0  0  0
 43 98  1  0  0  0  0
 44 45  2  0  0  0  0
 45 99  1  0  0  0  0
 46 49  1  0  0  0  0
 46100  1  0  0  0  0
 46101  1  0  0  0  0
 47 50  1  0  0  0  0
 47108  1  1  0  0  0
 48 49  1  0  0  0  0
 48102  1  0  0  0  0
 48103  1  0  0  0  0
 50104  1  0  0  0  0
 50105  1  0  0  0  0
 50106  1  0  0  0  0
M  CHG  2  35   1  47   1
M  END
$$$$
