3TL
 OpenBabel04051918433D

130133  0  0  1  0  0  0  0  0999 V2000
  -10.4679  -15.4603   11.6469 N   0  0  0  0  0  0  0  0  0  0  0  0
  -10.4517  -15.2939   13.0962 C   0  0  2  0  0  0  0  0  0  0  0  0
  -10.6597  -13.7336    8.9478 N   0  0  0  0  0  0  0  0  0  0  0  0
   -9.9012  -16.5490   13.7553 C   0  0  1  0  0  0  0  0  0  0  0  0
  -11.8852  -15.0481   13.5672 C   0  0  0  0  0  0  0  0  0  0  0  0
  -12.2323  -13.6051   13.3585 C   0  0  0  0  0  0  0  0  0  0  0  0
  -13.0270  -13.2158   12.2805 C   0  0  0  0  0  0  0  0  0  0  0  0
  -10.7722  -17.6352   13.3765 O   0  0  0  0  0  0  0  0  0  0  0  0
  -13.3055  -11.8667   12.0862 C   0  0  0  0  0  0  0  0  0  0  0  0
  -12.7737  -10.9103   12.9417 C   0  0  0  0  0  0  0  0  0  0  0  0
   -8.9228  -13.8195   11.2659 O   0  0  0  0  0  0  0  0  0  0  0  0
  -11.9725  -11.2889   14.0157 C   0  0  0  0  0  0  0  0  0  0  0  0
  -11.7023  -12.6388   14.2234 C   0  0  0  0  0  0  0  0  0  0  0  0
   -9.9232  -14.9210    9.3699 C   0  0  2  0  0  0  0  0  0  0  0  0
   -9.6967  -14.6951   10.8435 C   0  0  0  0  0  0  0  0  0  0  0  0
   -8.5891  -15.0637    8.6324 C   0  0  0  0  0  0  0  0  0  0  0  0
  -11.2202   -8.1386    3.1310 C   0  0  0  0  0  0  0  0  0  0  0  0
  -11.6898   -6.8384    3.3311 C   0  0  0  0  0  0  0  0  0  0  0  0
  -12.5179  -12.3494    6.2030 N   0  0  0  0  0  0  0  0  0  0  0  0
  -12.9886   -6.6361    3.7908 C   0  0  0  0  0  0  0  0  0  0  0  0
  -13.8203   -7.7285    4.0409 C   0  0  0  0  0  0  0  0  0  0  0  0
  -13.3533   -9.0266    3.8330 C   0  0  0  0  0  0  0  0  0  0  0  0
  -11.9899  -14.8480    7.4756 O   0  0  0  0  0  0  0  0  0  0  0  0
  -12.2526  -12.4468    7.6325 C   0  0  2  0  0  0  0  0  0  0  0  0
  -11.6212  -13.7930    7.9807 C   0  0  0  0  0  0  0  0  0  0  0  0
  -13.5394  -12.2949    8.4223 C   0  0  0  0  0  0  0  0  0  0  0  0
   -3.8508  -14.6688   20.8495 O   0  0  0  0  0  0  0  0  0  0  0  0
   -4.0741  -15.7447   21.4198 C   0  0  0  0  0  0  0  0  0  0  0  0
   -3.9969  -15.9544   22.7532 O   0  0  0  0  0  0  0  0  0  0  0  0
   -3.5035  -14.8465   23.5563 C   0  0  0  0  0  0  0  0  0  0  0  0
   -1.9938  -14.7673   23.5629 C   0  0  0  0  0  0  0  0  0  0  0  0
   -1.3567  -13.5368   23.7934 C   0  0  0  0  0  0  0  0  0  0  0  0
    0.0367  -13.4455   23.7857 C   0  0  0  0  0  0  0  0  0  0  0  0
    0.8046  -14.5853   23.5596 C   0  0  0  0  0  0  0  0  0  0  0  0
    0.1836  -15.8164   23.3505 C   0  0  0  0  0  0  0  0  0  0  0  0
   -1.2083  -15.9084   23.3641 C   0  0  0  0  0  0  0  0  0  0  0  0
   -4.3938  -16.8805   20.7227 N   0  0  0  0  0  0  0  0  0  0  0  0
   -4.5756  -16.8559   19.2799 C   0  0  1  0  0  0  0  0  0  0  0  0
   -3.9308  -18.0861   18.6644 C   0  0  0  0  0  0  0  0  0  0  0  0
   -6.0730  -16.7774   18.9589 C   0  0  0  0  0  0  0  0  0  0  0  0
   -6.8873  -17.5929   19.3770 O   0  0  0  0  0  0  0  0  0  0  0  0
   -6.4161  -15.7067   18.1594 N   0  0  0  0  0  0  0  0  0  0  0  0
   -7.7550  -15.5328   17.6099 C   0  0  1  0  0  0  0  0  0  0  0  0
   -8.6334  -14.5194   18.3563 C   0  0  0  0  0  0  0  0  0  0  0  0
   -8.6132  -14.7390   19.8607 C   0  0  0  0  0  0  0  0  0  0  0  0
  -10.0771  -14.6331   17.8608 C   0  0  0  0  0  0  0  0  0  0  0  0
   -7.5625  -15.0917   16.1535 C   0  0  0  0  0  0  0  0  0  0  0  0
   -7.4973  -13.9284   15.7826 O   0  0  0  0  0  0  0  0  0  0  0  0
   -7.4243  -16.1574   15.3083 N   0  0  0  0  0  0  0  0  0  0  0  0
   -7.3631  -16.0691   13.8534 C   0  0  1  0  0  0  0  0  0  0  0  0
   -6.0954  -16.7401   13.3050 C   0  0  0  0  0  0  0  0  0  0  0  0
   -4.8109  -16.1795   13.8041 C   0  0  0  0  0  0  0  0  0  0  0  0
   -4.4081  -16.4195   15.1255 C   0  0  0  0  0  0  0  0  0  0  0  0
   -3.2047  -15.8817   15.6162 C   0  0  0  0  0  0  0  0  0  0  0  0
   -2.4058  -15.1237   14.7464 C   0  0  0  0  0  0  0  0  0  0  0  0
   -2.8172  -14.9085   13.4218 C   0  0  0  0  0  0  0  0  0  0  0  0
   -4.0095  -15.4302   12.9613 C   0  0  0  0  0  0  0  0  0  0  0  0
   -8.5028  -16.9262   13.2911 C   0  0  1  0  0  0  0  0  0  0  0  0
   -8.2665  -18.2774   13.7708 O   0  0  0  0  0  0  0  0  0  0  0  0
   -8.8325  -15.4578    7.1824 C   0  0  0  0  0  0  0  0  0  0  0  0
   -7.6468  -16.0797    9.2757 C   0  0  0  0  0  0  0  0  0  0  0  0
  -11.6696  -11.6814    5.3468 C   0  0  0  0  0  0  0  0  0  0  0  0
  -10.6304  -11.1304    5.7291 O   0  0  0  0  0  0  0  0  0  0  0  0
  -12.1418  -11.6220    4.0794 O   0  0  0  0  0  0  0  0  0  0  0  0
  -11.5136  -10.6504    3.1861 C   0  0  0  0  0  0  0  0  0  0  0  0
  -12.0414   -9.2467    3.3973 C   0  0  0  0  0  0  0  0  0  0  0  0
  -11.0639  -16.1838   11.2571 H   0  0  0  0  0  0  0  0  0  0  0  0
   -9.8142  -14.4465   13.3618 H   0  0  0  0  0  0  0  0  0  0  0  0
  -10.3786  -12.8315    9.3342 H   0  0  0  0  0  0  0  0  0  0  0  0
   -9.9245  -16.4377   14.8460 H   0  0  0  0  0  0  0  0  0  0  0  0
  -11.9910  -15.2883   14.6307 H   0  0  0  0  0  0  0  0  0  0  0  0
  -12.5930  -15.6824   13.0161 H   0  0  0  0  0  0  0  0  0  0  0  0
  -13.4302  -13.9631   11.5985 H   0  0  0  0  0  0  0  0  0  0  0  0
  -10.4575  -18.4269   13.8434 H   0  0  0  0  0  0  0  0  0  0  0  0
  -13.9440  -11.5546   11.2671 H   0  0  0  0  0  0  0  0  0  0  0  0
  -12.9886   -9.8555   12.7775 H   0  0  0  0  0  0  0  0  0  0  0  0
  -11.5644  -10.5461   14.6854 H   0  0  0  0  0  0  0  0  0  0  0  0
  -11.0696  -12.9367   15.0558 H   0  0  0  0  0  0  0  0  0  0  0  0
  -10.5433  -15.8114    9.2272 H   0  0  0  0  0  0  0  0  0  0  0  0
   -8.0815  -14.0923    8.6448 H   0  0  0  0  0  0  0  0  0  0  0  0
  -10.2004   -8.2859    2.7819 H   0  0  0  0  0  0  0  0  0  0  0  0
  -11.0407   -5.9888    3.1313 H   0  0  0  0  0  0  0  0  0  0  0  0
  -13.3082  -12.8623    5.8209 H   0  0  0  0  0  0  0  0  0  0  0  0
  -13.3557   -5.6263    3.9526 H   0  0  0  0  0  0  0  0  0  0  0  0
  -14.8330   -7.5699    4.3993 H   0  0  0  0  0  0  0  0  0  0  0  0
  -14.0066   -9.8738    4.0264 H   0  0  0  0  0  0  0  0  0  0  0  0
  -11.5609  -11.6485    7.9351 H   0  0  0  0  0  0  0  0  0  0  0  0
  -13.3427  -12.3771    9.4886 H   0  0  0  0  0  0  0  0  0  0  0  0
  -14.2630  -13.0742    8.1634 H   0  0  0  0  0  0  0  0  0  0  0  0
  -13.9925  -11.3192    8.2260 H   0  0  0  0  0  0  0  0  0  0  0  0
   -3.8338  -14.9812   24.6010 H   0  0  0  0  0  0  0  0  0  0  0  0
   -3.9236  -13.8967   23.2063 H   0  0  0  0  0  0  0  0  0  0  0  0
   -1.9483  -12.6402   23.9650 H   0  0  0  0  0  0  0  0  0  0  0  0
    0.5198  -12.4869   23.9531 H   0  0  0  0  0  0  0  0  0  0  0  0
    1.8892  -14.5159   23.5495 H   0  0  0  0  0  0  0  0  0  0  0  0
    0.7815  -16.7041   23.1759 H   0  0  0  0  0  0  0  0  0  0  0  0
   -1.6847  -16.8723   23.2036 H   0  0  0  0  0  0  0  0  0  0  0  0
   -4.5840  -17.7450   21.2258 H   0  0  0  0  0  0  0  0  0  0  0  0
   -4.0840  -15.9704   18.8555 H   0  0  0  0  0  0  0  0  0  0  0  0
   -4.0488  -18.1066   17.5773 H   0  0  0  0  0  0  0  0  0  0  0  0
   -4.3629  -19.0075   19.0669 H   0  0  0  0  0  0  0  0  0  0  0  0
   -2.8580  -18.0884   18.8906 H   0  0  0  0  0  0  0  0  0  0  0  0
   -5.7397  -14.9633   18.0106 H   0  0  0  0  0  0  0  0  0  0  0  0
   -8.2612  -16.5064   17.6029 H   0  0  0  0  0  0  0  0  0  0  0  0
   -8.2822  -13.5018   18.1504 H   0  0  0  0  0  0  0  0  0  0  0  0
   -9.2681  -14.0186   20.3590 H   0  0  0  0  0  0  0  0  0  0  0  0
   -7.6031  -14.6035   20.2537 H   0  0  0  0  0  0  0  0  0  0  0  0
   -8.9561  -15.7479   20.1143 H   0  0  0  0  0  0  0  0  0  0  0  0
  -10.1340  -14.4863   16.7783 H   0  0  0  0  0  0  0  0  0  0  0  0
  -10.7039  -13.8760   18.3408 H   0  0  0  0  0  0  0  0  0  0  0  0
  -10.4919  -15.6210   18.0931 H   0  0  0  0  0  0  0  0  0  0  0  0
   -7.3931  -17.0914   15.7048 H   0  0  0  0  0  0  0  0  0  0  0  0
   -7.4274  -15.0248   13.5234 H   0  0  0  0  0  0  0  0  0  0  0  0
   -6.1123  -16.6681   12.2100 H   0  0  0  0  0  0  0  0  0  0  0  0
   -6.0922  -17.8110   13.5428 H   0  0  0  0  0  0  0  0  0  0  0  0
   -5.0309  -17.0131   15.8010 H   0  0  0  0  0  0  0  0  0  0  0  0
   -2.8994  -16.0393   16.6185 H   0  0  0  0  0  0  0  0  0  0  0  0
   -1.4872  -14.6976   15.1106 H   0  0  0  0  0  0  0  0  0  0  0  0
   -2.1960  -14.3195   12.7548 H   0  0  0  0  0  0  0  0  0  0  0  0
   -4.3194  -15.2677   11.9353 H   0  0  0  0  0  0  0  0  0  0  0  0
   -8.4443  -16.9297   12.2002 H   0  0  0  0  0  0  0  0  0  0  0  0
   -8.9088  -18.8637   13.3458 H   0  0  0  0  0  0  0  0  0  0  0  0
   -7.8823  -15.5833    6.6608 H   0  0  0  0  0  0  0  0  0  0  0  0
   -9.3987  -14.6788    6.6675 H   0  0  0  0  0  0  0  0  0  0  0  0
   -9.3945  -16.3970    7.1175 H   0  0  0  0  0  0  0  0  0  0  0  0
   -7.4479  -15.8272   10.3201 H   0  0  0  0  0  0  0  0  0  0  0  0
   -6.6837  -16.0739    8.7547 H   0  0  0  0  0  0  0  0  0  0  0  0
   -8.0557  -17.0941    9.2355 H   0  0  0  0  0  0  0  0  0  0  0  0
  -11.7297  -10.9260    2.1383 H   0  0  0  0  0  0  0  0  0  0  0  0
  -10.4236  -10.6521    3.3023 H   0  0  0  0  0  0  0  0  0  0  0  0
  1  2  1  0  0  0  0
  1 15  1  0  0  0  0
  1 67  1  0  0  0  0
  2  4  1  0  0  0  0
  2  5  1  0  0  0  0
  2 68  1  1  0  0  0
  3 14  1  0  0  0  0
  3 25  1  0  0  0  0
  3 69  1  0  0  0  0
  4  8  1  0  0  0  0
  4 58  1  0  0  0  0
  4 70  1  1  0  0  0
  5  6  1  0  0  0  0
  5 71  1  0  0  0  0
  5 72  1  0  0  0  0
  6  7  2  0  0  0  0
  6 13  1  0  0  0  0
  7  9  1  0  0  0  0
  7 73  1  0  0  0  0
  8 74  1  0  0  0  0
  9 10  2  0  0  0  0
  9 75  1  0  0  0  0
 10 12  1  0  0  0  0
 10 76  1  0  0  0  0
 11 15  2  0  0  0  0
 12 13  2  0  0  0  0
 12 77  1  0  0  0  0
 13 78  1  0  0  0  0
 14 15  1  0  0  0  0
 14 16  1  0  0  0  0
 14 79  1  6  0  0  0
 16 60  1  0  0  0  0
 16 61  1  0  0  0  0
 16 80  1  0  0  0  0
 17 18  2  0  0  0  0
 17 66  1  0  0  0  0
 17 81  1  0  0  0  0
 18 20  1  0  0  0  0
 18 82  1  0  0  0  0
 19 24  1  0  0  0  0
 19 62  1  0  0  0  0
 19 83  1  0  0  0  0
 20 21  2  0  0  0  0
 20 84  1  0  0  0  0
 21 22  1  0  0  0  0
 21 85  1  0  0  0  0
 22 66  2  0  0  0  0
 22 86  1  0  0  0  0
 23 25  2  0  0  0  0
 24 25  1  0  0  0  0
 24 26  1  0  0  0  0
 24 87  1  1  0  0  0
 26 88  1  0  0  0  0
 26 89  1  0  0  0  0
 26 90  1  0  0  0  0
 27 28  2  0  0  0  0
 28 29  1  0  0  0  0
 28 37  1  0  0  0  0
 29 30  1  0  0  0  0
 30 31  1  0  0  0  0
 30 91  1  0  0  0  0
 30 92  1  0  0  0  0
 31 32  2  0  0  0  0
 31 36  1  0  0  0  0
 32 33  1  0  0  0  0
 32 93  1  0  0  0  0
 33 34  2  0  0  0  0
 33 94  1  0  0  0  0
 34 35  1  0  0  0  0
 34 95  1  0  0  0  0
 35 36  2  0  0  0  0
 35 96  1  0  0  0  0
 36 97  1  0  0  0  0
 37 38  1  0  0  0  0
 37 98  1  0  0  0  0
 38 39  1  0  0  0  0
 38 40  1  0  0  0  0
 38 99  1  6  0  0  0
 39100  1  0  0  0  0
 39101  1  0  0  0  0
 39102  1  0  0  0  0
 40 41  2  0  0  0  0
 40 42  1  0  0  0  0
 42 43  1  0  0  0  0
 42103  1  0  0  0  0
 43 44  1  0  0  0  0
 43 47  1  0  0  0  0
 43104  1  1  0  0  0
 44 45  1  0  0  0  0
 44 46  1  0  0  0  0
 44105  1  0  0  0  0
 45106  1  0  0  0  0
 45107  1  0  0  0  0
 45108  1  0  0  0  0
 46109  1  0  0  0  0
 46110  1  0  0  0  0
 46111  1  0  0  0  0
 47 48  2  0  0  0  0
 47 49  1  0  0  0  0
 49 50  1  0  0  0  0
 49112  1  0  0  0  0
 50 51  1  0  0  0  0
 50 58  1  0  0  0  0
 50113  1  6  0  0  0
 51 52  1  0  0  0  0
 51114  1  0  0  0  0
 51115  1  0  0  0  0
 52 53  2  0  0  0  0
 52 57  1  0  0  0  0
 53 54  1  0  0  0  0
 53116  1  0  0  0  0
 54 55  2  0  0  0  0
 54117  1  0  0  0  0
 55 56  1  0  0  0  0
 55118  1  0  0  0  0
 56 57  2  0  0  0  0
 56119  1  0  0  0  0
 57120  1  0  0  0  0
 58 59  1  0  0  0  0
 58121  1  6  0  0  0
 59122  1  0  0  0  0
 60123  1  0  0  0  0
 60124  1  0  0  0  0
 60125  1  0  0  0  0
 61126  1  0  0  0  0
 61127  1  0  0  0  0
 61128  1  0  0  0  0
 62 63  2  0  0  0  0
 62 64  1  0  0  0  0
 64 65  1  0  0  0  0
 65 66  1  0  0  0  0
 65129  1  0  0  0  0
 65130  1  0  0  0  0
M  END
$$$$
