3TL
 OpenBabel04051918433D

130133  0  0  1  0  0  0  0  0999 V2000
   18.2302    1.2288    1.9681 N   0  0  0  0  0  0  0  0  0  0  0  0
   18.2794    1.2785    0.5054 C   0  0  2  0  0  0  0  0  0  0  0  0
   16.4278    2.1622    4.7227 N   0  0  0  0  0  0  0  0  0  0  0  0
   19.2434    0.2058   -0.0235 C   0  0  1  0  0  0  0  0  0  0  0  0
   18.7652    2.6653    0.0342 C   0  0  0  0  0  0  0  0  0  0  0  0
   17.8469    3.7864    0.4423 C   0  0  0  0  0  0  0  0  0  0  0  0
   18.3561    4.8967    1.1266 C   0  0  0  0  0  0  0  0  0  0  0  0
   20.5714    0.4603    0.4915 O   0  0  0  0  0  0  0  0  0  0  0  0
   17.5062    5.9276    1.5156 C   0  0  0  0  0  0  0  0  0  0  0  0
   16.1413    5.8533    1.2354 C   0  0  0  0  0  0  0  0  0  0  0  0
   15.9666    0.8616    2.1856 O   0  0  0  0  0  0  0  0  0  0  0  0
   15.6268    4.7490    0.5596 C   0  0  0  0  0  0  0  0  0  0  0  0
   16.4772    3.7304    0.1486 C   0  0  0  0  0  0  0  0  0  0  0  0
   17.2930    1.1074    4.2129 C   0  0  2  0  0  0  0  0  0  0  0  0
   17.0773    1.0550    2.6921 C   0  0  0  0  0  0  0  0  0  0  0  0
   17.0211   -0.2449    4.9036 C   0  0  0  0  0  0  0  0  0  0  0  0
   12.5141    5.7226   11.0659 C   0  0  0  0  0  0  0  0  0  0  0  0
   11.7067    6.8610   11.0468 C   0  0  0  0  0  0  0  0  0  0  0  0
   16.0825    4.6243    7.2293 N   0  0  0  0  0  0  0  0  0  0  0  0
   12.1308    8.0121   10.3832 C   0  0  0  0  0  0  0  0  0  0  0  0
   13.3733    8.0336    9.7562 C   0  0  0  0  0  0  0  0  0  0  0  0
   14.1870    6.9037    9.7888 C   0  0  0  0  0  0  0  0  0  0  0  0
   18.0726    3.1555    5.9623 O   0  0  0  0  0  0  0  0  0  0  0  0
   15.9544    4.3110    5.8225 C   0  0  2  0  0  0  0  0  0  0  0  0
   16.9204    3.1585    5.5298 C   0  0  0  0  0  0  0  0  0  0  0  0
   16.3570    5.5066    4.9781 C   0  0  0  0  0  0  0  0  0  0  0  0
   14.7235   -3.9461   -7.3715 O   0  0  0  0  0  0  0  0  0  0  0  0
   15.7590   -4.4141   -7.8154 C   0  0  0  0  0  0  0  0  0  0  0  0
   15.9178   -4.9726   -9.0367 O   0  0  0  0  0  0  0  0  0  0  0  0
   14.7075   -5.0551   -9.8016 C   0  0  0  0  0  0  0  0  0  0  0  0
   13.8593   -6.2852   -9.5288 C   0  0  0  0  0  0  0  0  0  0  0  0
   12.7958   -6.5678  -10.4021 C   0  0  0  0  0  0  0  0  0  0  0  0
   11.9488   -7.6560  -10.1778 C   0  0  0  0  0  0  0  0  0  0  0  0
   12.1459   -8.4761   -9.0709 C   0  0  0  0  0  0  0  0  0  0  0  0
   13.1915   -8.2095   -8.1910 C   0  0  0  0  0  0  0  0  0  0  0  0
   14.0439   -7.1241   -8.4187 C   0  0  0  0  0  0  0  0  0  0  0  0
   16.9058   -4.5489   -7.0941 N   0  0  0  0  0  0  0  0  0  0  0  0
   16.8995   -4.3820   -5.6566 C   0  0  1  0  0  0  0  0  0  0  0  0
   17.5454   -5.5840   -4.9955 C   0  0  0  0  0  0  0  0  0  0  0  0
   17.6153   -3.0906   -5.2440 C   0  0  0  0  0  0  0  0  0  0  0  0
   18.7438   -2.7979   -5.6278 O   0  0  0  0  0  0  0  0  0  0  0  0
   16.8727   -2.2999   -4.3974 N   0  0  0  0  0  0  0  0  0  0  0  0
   17.3031   -0.9783   -3.9551 C   0  0  1  0  0  0  0  0  0  0  0  0
   16.6711    0.1534   -4.8013 C   0  0  0  0  0  0  0  0  0  0  0  0
   16.8505   -0.0630   -6.3096 C   0  0  0  0  0  0  0  0  0  0  0  0
   17.2703    1.5176   -4.4324 C   0  0  0  0  0  0  0  0  0  0  0  0
   16.8899   -0.9167   -2.4652 C   0  0  0  0  0  0  0  0  0  0  0  0
   15.9894   -0.2008   -2.0400 O   0  0  0  0  0  0  0  0  0  0  0  0
   17.6234   -1.7582   -1.6533 N   0  0  0  0  0  0  0  0  0  0  0  0
   17.5317   -1.7527   -0.1910 C   0  0  1  0  0  0  0  0  0  0  0  0
   17.2790   -3.1502    0.4301 C   0  0  0  0  0  0  0  0  0  0  0  0
   16.6742   -4.2109   -0.4461 C   0  0  0  0  0  0  0  0  0  0  0  0
   15.3755   -4.0785   -0.9492 C   0  0  0  0  0  0  0  0  0  0  0  0
   14.8184   -5.1034   -1.7167 C   0  0  0  0  0  0  0  0  0  0  0  0
   15.5483   -6.2620   -1.9734 C   0  0  0  0  0  0  0  0  0  0  0  0
   16.8437   -6.3987   -1.4780 C   0  0  0  0  0  0  0  0  0  0  0  0
   17.4073   -5.3727   -0.7256 C   0  0  0  0  0  0  0  0  0  0  0  0
   18.8603   -1.2169    0.3949 C   0  0  1  0  0  0  0  0  0  0  0  0
   19.9450   -2.0809   -0.0230 O   0  0  0  0  0  0  0  0  0  0  0  0
   17.5388   -0.2095    6.3465 C   0  0  0  0  0  0  0  0  0  0  0  0
   17.6852   -1.4128    4.1685 C   0  0  0  0  0  0  0  0  0  0  0  0
   15.1295    4.2731    8.1292 C   0  0  0  0  0  0  0  0  0  0  0  0
   14.0184    3.8523    7.8477 O   0  0  0  0  0  0  0  0  0  0  0  0
   15.5988    4.5088    9.3768 O   0  0  0  0  0  0  0  0  0  0  0  0
   14.6009    4.4671   10.4061 C   0  0  0  0  0  0  0  0  0  0  0  0
   13.7572    5.7237   10.4178 C   0  0  0  0  0  0  0  0  0  0  0  0
   19.0887    1.4802    2.4487 H   0  0  0  0  0  0  0  0  0  0  0  0
   17.2790    1.0824    0.1102 H   0  0  0  0  0  0  0  0  0  0  0  0
   15.4643    2.1819    4.3957 H   0  0  0  0  0  0  0  0  0  0  0  0
   19.3194    0.2798   -1.1149 H   0  0  0  0  0  0  0  0  0  0  0  0
   18.8639    2.6812   -1.0588 H   0  0  0  0  0  0  0  0  0  0  0  0
   19.7677    2.8588    0.4392 H   0  0  0  0  0  0  0  0  0  0  0  0
   19.4142    4.9583    1.3716 H   0  0  0  0  0  0  0  0  0  0  0  0
   21.1735   -0.0481   -0.0835 H   0  0  0  0  0  0  0  0  0  0  0  0
   17.9036    6.7801    2.0612 H   0  0  0  0  0  0  0  0  0  0  0  0
   15.4748    6.6450    1.5624 H   0  0  0  0  0  0  0  0  0  0  0  0
   14.5613    4.6734    0.3584 H   0  0  0  0  0  0  0  0  0  0  0  0
   16.0540    2.8769   -0.3795 H   0  0  0  0  0  0  0  0  0  0  0  0
   18.3375    1.3897    4.3950 H   0  0  0  0  0  0  0  0  0  0  0  0
   15.9407   -0.4345    4.9280 H   0  0  0  0  0  0  0  0  0  0  0  0
   12.1585    4.8279   11.5719 H   0  0  0  0  0  0  0  0  0  0  0  0
   10.7379    6.8468   11.5385 H   0  0  0  0  0  0  0  0  0  0  0  0
   17.0073    4.7958    7.6032 H   0  0  0  0  0  0  0  0  0  0  0  0
   11.4930    8.8902   10.3515 H   0  0  0  0  0  0  0  0  0  0  0  0
   13.7068    8.9243    9.2309 H   0  0  0  0  0  0  0  0  0  0  0  0
   15.1529    6.9448    9.2900 H   0  0  0  0  0  0  0  0  0  0  0  0
   14.9271    4.0156    5.5872 H   0  0  0  0  0  0  0  0  0  0  0  0
   16.2825    5.2523    3.9214 H   0  0  0  0  0  0  0  0  0  0  0  0
   17.3930    5.8094    5.1759 H   0  0  0  0  0  0  0  0  0  0  0  0
   15.7138    6.3688    5.1765 H   0  0  0  0  0  0  0  0  0  0  0  0
   15.0191   -5.0785  -10.8527 H   0  0  0  0  0  0  0  0  0  0  0  0
   14.0992   -4.1493   -9.6730 H   0  0  0  0  0  0  0  0  0  0  0  0
   12.6135   -5.9297  -11.2643 H   0  0  0  0  0  0  0  0  0  0  0  0
   11.1295   -7.8565  -10.8632 H   0  0  0  0  0  0  0  0  0  0  0  0
   11.4822   -9.3178   -8.8906 H   0  0  0  0  0  0  0  0  0  0  0  0
   13.3400   -8.8425   -7.3197 H   0  0  0  0  0  0  0  0  0  0  0  0
   14.8421   -6.9425   -7.7047 H   0  0  0  0  0  0  0  0  0  0  0  0
   17.7685   -4.7413   -7.5892 H   0  0  0  0  0  0  0  0  0  0  0  0
   15.8587   -4.3320   -5.3136 H   0  0  0  0  0  0  0  0  0  0  0  0
   17.5357   -5.4680   -3.9126 H   0  0  0  0  0  0  0  0  0  0  0  0
   18.5876   -5.7078   -5.3047 H   0  0  0  0  0  0  0  0  0  0  0  0
   17.0045   -6.5014   -5.2561 H   0  0  0  0  0  0  0  0  0  0  0  0
   15.9246   -2.5753   -4.1625 H   0  0  0  0  0  0  0  0  0  0  0  0
   18.3969   -0.9135   -4.0089 H   0  0  0  0  0  0  0  0  0  0  0  0
   15.5922    0.1921   -4.6018 H   0  0  0  0  0  0  0  0  0  0  0  0
   16.4333    0.7778   -6.8746 H   0  0  0  0  0  0  0  0  0  0  0  0
   16.3307   -0.9641   -6.6496 H   0  0  0  0  0  0  0  0  0  0  0  0
   17.9092   -0.1540   -6.5758 H   0  0  0  0  0  0  0  0  0  0  0  0
   17.1854    1.7266   -3.3622 H   0  0  0  0  0  0  0  0  0  0  0  0
   16.7486    2.3206   -4.9651 H   0  0  0  0  0  0  0  0  0  0  0  0
   18.3305    1.5710   -4.7035 H   0  0  0  0  0  0  0  0  0  0  0  0
   18.3366   -2.3492   -2.0698 H   0  0  0  0  0  0  0  0  0  0  0  0
   16.6989   -1.1045    0.1039 H   0  0  0  0  0  0  0  0  0  0  0  0
   16.6420   -3.0309    1.3177 H   0  0  0  0  0  0  0  0  0  0  0  0
   18.2145   -3.5524    0.8403 H   0  0  0  0  0  0  0  0  0  0  0  0
   14.7935   -3.1846   -0.7397 H   0  0  0  0  0  0  0  0  0  0  0  0
   13.8075   -4.9988   -2.1025 H   0  0  0  0  0  0  0  0  0  0  0  0
   15.1105   -7.0599   -2.5677 H   0  0  0  0  0  0  0  0  0  0  0  0
   17.4203   -7.2953   -1.6887 H   0  0  0  0  0  0  0  0  0  0  0  0
   18.4225   -5.4876   -0.3497 H   0  0  0  0  0  0  0  0  0  0  0  0
   18.8281   -1.2869    1.4871 H   0  0  0  0  0  0  0  0  0  0  0  0
   20.6517   -1.9428    0.6349 H   0  0  0  0  0  0  0  0  0  0  0  0
   17.3820   -1.1710    6.8450 H   0  0  0  0  0  0  0  0  0  0  0  0
   17.0239    0.5564    6.9339 H   0  0  0  0  0  0  0  0  0  0  0  0
   18.6126    0.0105    6.3714 H   0  0  0  0  0  0  0  0  0  0  0  0
   17.2729   -1.5265    3.1625 H   0  0  0  0  0  0  0  0  0  0  0  0
   17.5075   -2.3585    4.6909 H   0  0  0  0  0  0  0  0  0  0  0  0
   18.7677   -1.2678    4.0850 H   0  0  0  0  0  0  0  0  0  0  0  0
   15.1280    4.3878   11.3631 H   0  0  0  0  0  0  0  0  0  0  0  0
   13.9818    3.5676   10.2969 H   0  0  0  0  0  0  0  0  0  0  0  0
  1  2  1  0  0  0  0
  1 15  1  0  0  0  0
  1 67  1  0  0  0  0
  2  4  1  0  0  0  0
  2  5  1  0  0  0  0
  2 68  1  6  0  0  0
  3 14  1  0  0  0  0
  3 25  1  0  0  0  0
  3 69  1  0  0  0  0
  4  8  1  0  0  0  0
  4 58  1  0  0  0  0
  4 70  1  6  0  0  0
  5  6  1  0  0  0  0
  5 71  1  0  0  0  0
  5 72  1  0  0  0  0
  6  7  2  0  0  0  0
  6 13  1  0  0  0  0
  7  9  1  0  0  0  0
  7 73  1  0  0  0  0
  8 74  1  0  0  0  0
  9 10  2  0  0  0  0
  9 75  1  0  0  0  0
 10 12  1  0  0  0  0
 10 76  1  0  0  0  0
 11 15  2  0  0  0  0
 12 13  2  0  0  0  0
 12 77  1  0  0  0  0
 13 78  1  0  0  0  0
 14 15  1  0  0  0  0
 14 16  1  0  0  0  0
 14 79  1  1  0  0  0
 16 60  1  0  0  0  0
 16 61  1  0  0  0  0
 16 80  1  0  0  0  0
 17 18  2  0  0  0  0
 17 66  1  0  0  0  0
 17 81  1  0  0  0  0
 18 20  1  0  0  0  0
 18 82  1  0  0  0  0
 19 24  1  0  0  0  0
 19 62  1  0  0  0  0
 19 83  1  0  0  0  0
 20 21  2  0  0  0  0
 20 84  1  0  0  0  0
 21 22  1  0  0  0  0
 21 85  1  0  0  0  0
 22 66  2  0  0  0  0
 22 86  1  0  0  0  0
 23 25  2  0  0  0  0
 24 25  1  0  0  0  0
 24 26  1  0  0  0  0
 24 87  1  6  0  0  0
 26 88  1  0  0  0  0
 26 89  1  0  0  0  0
 26 90  1  0  0  0  0
 27 28  2  0  0  0  0
 28 29  1  0  0  0  0
 28 37  1  0  0  0  0
 29 30  1  0  0  0  0
 30 31  1  0  0  0  0
 30 91  1  0  0  0  0
 30 92  1  0  0  0  0
 31 32  2  0  0  0  0
 31 36  1  0  0  0  0
 32 33  1  0  0  0  0
 32 93  1  0  0  0  0
 33 34  2  0  0  0  0
 33 94  1  0  0  0  0
 34 35  1  0  0  0  0
 34 95  1  0  0  0  0
 35 36  2  0  0  0  0
 35 96  1  0  0  0  0
 36 97  1  0  0  0  0
 37 38  1  0  0  0  0
 37 98  1  0  0  0  0
 38 39  1  0  0  0  0
 38 40  1  0  0  0  0
 38 99  1  1  0  0  0
 39100  1  0  0  0  0
 39101  1  0  0  0  0
 39102  1  0  0  0  0
 40 41  2  0  0  0  0
 40 42  1  0  0  0  0
 42 43  1  0  0  0  0
 42103  1  0  0  0  0
 43 44  1  0  0  0  0
 43 47  1  0  0  0  0
 43104  1  6  0  0  0
 44 45  1  0  0  0  0
 44 46  1  0  0  0  0
 44105  1  0  0  0  0
 45106  1  0  0  0  0
 45107  1  0  0  0  0
 45108  1  0  0  0  0
 46109  1  0  0  0  0
 46110  1  0  0  0  0
 46111  1  0  0  0  0
 47 48  2  0  0  0  0
 47 49  1  0  0  0  0
 49 50  1  0  0  0  0
 49112  1  0  0  0  0
 50 51  1  0  0  0  0
 50 58  1  0  0  0  0
 50113  1  1  0  0  0
 51 52  1  0  0  0  0
 51114  1  0  0  0  0
 51115  1  0  0  0  0
 52 53  2  0  0  0  0
 52 57  1  0  0  0  0
 53 54  1  0  0  0  0
 53116  1  0  0  0  0
 54 55  2  0  0  0  0
 54117  1  0  0  0  0
 55 56  1  0  0  0  0
 55118  1  0  0  0  0
 56 57  2  0  0  0  0
 56119  1  0  0  0  0
 57120  1  0  0  0  0
 58 59  1  0  0  0  0
 58121  1  1  0  0  0
 59122  1  0  0  0  0
 60123  1  0  0  0  0
 60124  1  0  0  0  0
 60125  1  0  0  0  0
 61126  1  0  0  0  0
 61127  1  0  0  0  0
 61128  1  0  0  0  0
 62 63  2  0  0  0  0
 62 64  1  0  0  0  0
 64 65  1  0  0  0  0
 65 66  1  0  0  0  0
 65129  1  0  0  0  0
 65130  1  0  0  0  0
M  END
$$$$
