410
 OpenBabel04051920543D

 57 60  0  0  0  0  0  0  0  0999 V2000
   48.5712   12.4015   -3.3249 C   0  0  0  0  0  0  0  0  0  0  0  0
   47.9838   11.1350   -3.3472 C   0  0  0  0  0  0  0  0  0  0  0  0
   48.3090   10.2021   -2.3649 C   0  0  0  0  0  0  0  0  0  0  0  0
   49.2050   10.5426   -1.3434 C   0  0  0  0  0  0  0  0  0  0  0  0
   49.8145   11.8014   -1.3357 C   0  0  0  0  0  0  0  0  0  0  0  0
   49.4867   12.7344   -2.3249 C   0  0  0  0  0  0  0  0  0  0  0  0
   49.5474    9.5549   -0.2910 C   0  0  0  0  0  0  0  0  0  0  0  0
   50.7110    9.1467   -0.2675 O   0  0  0  0  0  0  0  0  0  0  0  0
   48.5319    9.0886    0.5671 N   0  0  0  0  0  0  0  0  0  0  0  0
   47.2511    9.6932    0.6032 C   0  0  0  0  0  0  0  0  0  0  0  0
   46.1341    9.0188    0.1049 C   0  0  0  0  0  0  0  0  0  0  0  0
   44.8858    9.6419    0.0964 C   0  0  0  0  0  0  0  0  0  0  0  0
   44.7611   10.9357    0.6027 C   0  0  0  0  0  0  0  0  0  0  0  0
   45.8677   11.6408    1.0997 C   0  0  0  0  0  0  0  0  0  0  0  0
   47.1160   11.0072    1.0742 C   0  0  0  0  0  0  0  0  0  0  0  0
   45.7421   13.0232    1.6000 C   0  0  0  0  0  0  0  0  0  0  0  0
   46.3061   13.6574    2.6953 C   0  0  0  0  0  0  0  0  0  0  0  0
   45.9150   15.0295    2.8266 C   0  0  0  0  0  0  0  0  0  0  0  0
   45.0418   15.4209    1.8219 C   0  0  0  0  0  0  0  0  0  0  0  0
   44.7710   14.1287    0.7185 S   0  0  0  0  0  0  0  0  0  0  0  0
   44.3664   16.7329    1.6363 C   0  0  0  0  0  0  0  0  0  0  0  0
   43.7505   16.8981    0.5216 O   0  0  0  0  0  0  0  0  0  0  0  0
   44.4113   17.6036    2.5533 O   0  0  0  0  0  0  0  0  0  0  0  0
   46.2500   15.8011    3.8914 O   0  0  0  0  0  0  0  0  0  0  0  0
   47.4602   16.5548    3.6844 C   0  0  0  0  0  0  0  0  0  0  0  0
   47.8904   17.2830    4.9872 C   0  0  0  0  0  0  0  0  0  0  0  0
   49.0362   17.8359    4.9197 O   0  0  0  0  0  0  0  0  0  0  0  0
   47.1319   17.2185    6.0004 O   0  0  0  0  0  0  0  0  0  0  0  0
   47.4379   12.8388    3.9848 Br  0  0  0  0  0  0  0  0  0  0  0  0
   48.8742    8.0877    1.6114 C   0  0  0  0  0  0  0  0  0  0  0  0
   48.1373    6.7570    1.4081 C   0  0  0  0  0  0  0  0  0  0  0  0
   48.5974    5.7165    2.4214 C   0  0  0  0  0  0  0  0  0  0  0  0
   48.3158    6.2031    3.8380 C   0  0  0  0  0  0  0  0  0  0  0  0
   49.0254    7.5259    4.1131 C   0  0  0  0  0  0  0  0  0  0  0  0
   48.7140    8.6030    3.0597 C   0  0  0  0  0  0  0  0  0  0  0  0
   48.3067   13.1376   -4.0811 H   0  0  0  0  0  0  0  0  0  0  0  0
   47.2662   10.8852   -4.1215 H   0  0  0  0  0  0  0  0  0  0  0  0
   47.8541    9.2152   -2.3858 H   0  0  0  0  0  0  0  0  0  0  0  0
   50.5209   12.0664   -0.5546 H   0  0  0  0  0  0  0  0  0  0  0  0
   49.9333   13.7242   -2.3064 H   0  0  0  0  0  0  0  0  0  0  0  0
   46.2337    8.0301   -0.3228 H   0  0  0  0  0  0  0  0  0  0  0  0
   44.0265    9.1366   -0.3210 H   0  0  0  0  0  0  0  0  0  0  0  0
   43.7762   11.4022    0.5949 H   0  0  0  0  0  0  0  0  0  0  0  0
   47.9958   11.5382    1.4205 H   0  0  0  0  0  0  0  0  0  0  0  0
   47.3178   17.2964    2.8882 H   0  0  0  0  0  0  0  0  0  0  0  0
   48.2851   15.8874    3.4009 H   0  0  0  0  0  0  0  0  0  0  0  0
   49.9429    7.8601    1.5001 H   0  0  0  0  0  0  0  0  0  0  0  0
   48.3079    6.3856    0.3892 H   0  0  0  0  0  0  0  0  0  0  0  0
   47.0563    6.8928    1.5250 H   0  0  0  0  0  0  0  0  0  0  0  0
   49.6707    5.5257    2.3006 H   0  0  0  0  0  0  0  0  0  0  0  0
   48.0789    4.7677    2.2421 H   0  0  0  0  0  0  0  0  0  0  0  0
   48.6409    5.4478    4.5608 H   0  0  0  0  0  0  0  0  0  0  0  0
   47.2339    6.3304    3.9745 H   0  0  0  0  0  0  0  0  0  0  0  0
   50.1080    7.3492    4.1441 H   0  0  0  0  0  0  0  0  0  0  0  0
   48.7391    7.8913    5.1070 H   0  0  0  0  0  0  0  0  0  0  0  0
   47.6939    8.9613    3.2318 H   0  0  0  0  0  0  0  0  0  0  0  0
   49.3802    9.4580    3.2250 H   0  0  0  0  0  0  0  0  0  0  0  0
  1  2  2  0  0  0  0
  1  6  1  0  0  0  0
  1 36  1  0  0  0  0
  2  3  1  0  0  0  0
  2 37  1  0  0  0  0
  3  4  2  0  0  0  0
  3 38  1  0  0  0  0
  4  5  1  0  0  0  0
  4  7  1  0  0  0  0
  5  6  2  0  0  0  0
  5 39  1  0  0  0  0
  6 40  1  0  0  0  0
  7  8  2  0  0  0  0
  7  9  1  0  0  0  0
  9 10  1  0  0  0  0
  9 30  1  0  0  0  0
 10 11  2  0  0  0  0
 10 15  1  0  0  0  0
 11 12  1  0  0  0  0
 11 41  1  0  0  0  0
 12 13  2  0  0  0  0
 12 42  1  0  0  0  0
 13 14  1  0  0  0  0
 13 43  1  0  0  0  0
 14 15  2  0  0  0  0
 14 16  1  0  0  0  0
 15 44  1  0  0  0  0
 16 17  2  0  0  0  0
 16 20  1  0  0  0  0
 17 18  1  0  0  0  0
 17 29  1  0  0  0  0
 18 19  2  0  0  0  0
 18 24  1  0  0  0  0
 19 20  1  0  0  0  0
 19 21  1  0  0  0  0
 21 22  2  0  0  0  0
 21 23  1  0  0  0  0
 24 25  1  0  0  0  0
 25 26  1  0  0  0  0
 25 45  1  0  0  0  0
 25 46  1  0  0  0  0
 26 27  2  0  0  0  0
 26 28  1  0  0  0  0
 30 31  1  0  0  0  0
 30 35  1  0  0  0  0
 30 47  1  0  0  0  0
 31 32  1  0  0  0  0
 31 48  1  0  0  0  0
 31 49  1  0  0  0  0
 32 33  1  0  0  0  0
 32 50  1  0  0  0  0
 32 51  1  0  0  0  0
 33 34  1  0  0  0  0
 33 52  1  0  0  0  0
 33 53  1  0  0  0  0
 34 35  1  0  0  0  0
 34 54  1  0  0  0  0
 34 55  1  0  0  0  0
 35 56  1  0  0  0  0
 35 57  1  0  0  0  0
M  END
$$$$
