43M
 OpenBabel04051918453D

 16 16  0  0  0  0  0  0  0  0999 V2000
   49.1754  -26.5917  -94.6574 C   0  0  0  0  0  0  0  0  0  0  0  0
   48.5722  -27.3587  -95.6628 C   0  0  0  0  0  0  0  0  0  0  0  0
   47.4246  -26.8906  -96.3271 C   0  0  0  0  0  0  0  0  0  0  0  0
   46.7386  -27.6768  -97.4045 C   0  0  0  0  0  0  0  0  0  0  0  0
   46.9106  -25.6382  -95.9614 C   0  0  0  0  0  0  0  0  0  0  0  0
   47.5070  -24.8899  -94.9557 C   0  0  0  0  0  0  0  0  0  0  0  0
   48.6409  -25.3523  -94.2978 C   0  0  0  0  0  0  0  0  0  0  0  0
   49.2799  -28.8786  -96.0595 Cl  0  0  0  0  0  0  0  0  0  0  0  0
   46.9439  -23.6899  -94.6433 O   0  0  0  0  0  0  0  0  0  0  0  0
   50.0712  -26.9538  -94.1565 H   0  0  0  0  0  0  0  0  0  0  0  0
   45.8614  -27.1423  -97.7879 H   0  0  0  0  0  0  0  0  0  0  0  0
   46.3867  -28.6380  -97.0157 H   0  0  0  0  0  0  0  0  0  0  0  0
   47.4124  -27.8438  -98.2508 H   0  0  0  0  0  0  0  0  0  0  0  0
   46.0228  -25.2350  -96.4588 H   0  0  0  0  0  0  0  0  0  0  0  0
   49.1245  -24.7553  -93.5311 H   0  0  0  0  0  0  0  0  0  0  0  0
   46.8198  -23.6717  -93.6812 H   0  0  0  0  0  0  0  0  0  0  0  0
  1  2  2  0  0  0  0
  1  7  1  0  0  0  0
  1 10  1  0  0  0  0
  2  3  1  0  0  0  0
  2  8  1  0  0  0  0
  3  4  1  0  0  0  0
  3  5  2  0  0  0  0
  4 11  1  0  0  0  0
  4 12  1  0  0  0  0
  4 13  1  0  0  0  0
  5  6  1  0  0  0  0
  5 14  1  0  0  0  0
  6  7  2  0  0  0  0
  6  9  1  0  0  0  0
  7 15  1  0  0  0  0
  9 16  1  0  0  0  0
M  END
$$$$
