4AM
 OpenBabel04051919133D

 38 38  0  0  1  0  0  0  0  0999 V2000
   23.5391   19.9246   64.8137 C   0  0  0  0  0  0  0  0  0  0  0  0
   24.2943   20.8557   65.1462 O   0  0  0  0  0  0  0  0  0  0  0  0
   22.2858   19.7291   65.0081 O   0  0  0  0  0  0  0  0  0  0  0  0
   24.2018   18.7432   64.0367 C   0  0  0  0  0  0  0  0  0  0  0  0
   23.5048   17.7859   63.4556 C   0  0  0  0  0  0  0  0  0  0  0  0
   24.1734   16.7419   62.6658 C   0  0  2  0  0  0  0  0  0  0  0  0
   23.6412   15.4181   63.0698 N   0  3  0  0  0  0  0  0  0  0  0  0
   25.7149   16.7495   62.8074 C   0  0  1  0  0  0  0  0  0  0  0  0
   26.3138   16.0163   61.6823 N   0  0  0  0  0  0  0  0  0  0  0  0
   26.9568   14.8317   61.8820 C   0  0  0  0  0  0  0  0  0  0  0  0
   26.9957   14.3077   62.9864 O   0  0  0  0  0  0  0  0  0  0  0  0
   27.5283   14.1741   60.6607 C   0  0  0  0  0  0  0  0  0  0  0  0
   26.1528   18.2031   62.8158 C   0  0  1  0  0  0  0  0  0  0  0  0
   25.5772   18.8494   63.9417 O   0  0  0  0  0  0  0  0  0  0  0  0
   27.6722   18.3446   62.9240 C   0  0  2  0  0  0  0  0  0  0  0  0
   28.1397   17.6972   64.0963 O   0  0  0  0  0  0  0  0  0  0  0  0
   28.0385   19.8244   62.9061 C   0  0  2  0  0  0  0  0  0  0  0  0
   27.7167   20.2614   61.5798 O   0  0  0  0  0  0  0  0  0  0  0  0
   29.5181   20.1160   63.1242 C   0  0  0  0  0  0  0  0  0  0  0  0
   30.3142   19.3368   62.2266 O   0  0  0  0  0  0  0  0  0  0  0  0
   22.4199   17.7564   63.5834 H   0  0  0  0  0  0  0  0  0  0  0  0
   23.9367   16.8406   61.5955 H   0  0  0  0  0  0  0  0  0  0  0  0
   24.0786   14.6534   62.5575 H   0  0  0  0  0  0  0  0  0  0  0  0
   23.8293   15.2914   64.0756 H   0  0  0  0  0  0  0  0  0  0  0  0
   25.9810   16.2813   63.7717 H   0  0  0  0  0  0  0  0  0  0  0  0
   26.3113   16.4481   60.7630 H   0  0  0  0  0  0  0  0  0  0  0  0
   27.9773   13.2200   60.9604 H   0  0  0  0  0  0  0  0  0  0  0  0
   28.2996   14.8061   60.2201 H   0  0  0  0  0  0  0  0  0  0  0  0
   26.7443   13.9745   59.9239 H   0  0  0  0  0  0  0  0  0  0  0  0
   25.7943   18.7001   61.8975 H   0  0  0  0  0  0  0  0  0  0  0  0
   28.1252   17.8570   62.0483 H   0  0  0  0  0  0  0  0  0  0  0  0
   29.1107   17.7979   64.1210 H   0  0  0  0  0  0  0  0  0  0  0  0
   27.4676   20.3914   63.6506 H   0  0  0  0  0  0  0  0  0  0  0  0
   28.2461   19.7058   60.9866 H   0  0  0  0  0  0  0  0  0  0  0  0
   29.8142   19.8595   64.1419 H   0  0  0  0  0  0  0  0  0  0  0  0
   29.7214   21.1763   62.9317 H   0  0  0  0  0  0  0  0  0  0  0  0
   30.0843   19.6114   61.3240 H   0  0  0  0  0  0  0  0  0  0  0  0
   22.6256   15.4069   62.9336 H   0  0  0  0  0  0  0  0  0  0  0  0
  1  4  1  0  0  0  0
  1  3  2  0  0  0  0
  1  2  1  0  0  0  0
  4 14  1  0  0  0  0
  4  5  2  0  0  0  0
  5  6  1  0  0  0  0
  5 21  1  0  0  0  0
  6  8  1  0  0  0  0
  6  7  1  0  0  0  0
  6 22  1  6  0  0  0
  7 23  1  0  0  0  0
  7 24  1  0  0  0  0
  7 38  1  0  0  0  0
  8 13  1  0  0  0  0
  8  9  1  0  0  0  0
  8 25  1  1  0  0  0
  9 10  1  0  0  0  0
  9 26  1  0  0  0  0
 10 12  1  0  0  0  0
 10 11  2  0  0  0  0
 12 27  1  0  0  0  0
 12 28  1  0  0  0  0
 12 29  1  0  0  0  0
 13 15  1  0  0  0  0
 13 14  1  0  0  0  0
 13 30  1  6  0  0  0
 15 17  1  0  0  0  0
 15 16  1  0  0  0  0
 15 31  1  6  0  0  0
 16 32  1  0  0  0  0
 17 19  1  0  0  0  0
 17 18  1  0  0  0  0
 17 33  1  1  0  0  0
 18 34  1  0  0  0  0
 19 20  1  0  0  0  0
 19 35  1  0  0  0  0
 19 36  1  0  0  0  0
 20 37  1  0  0  0  0
M  CHG  1   7   1
M  END
$$$$
