4CP
 OpenBabel04051917293D

 48 49  0  0  1  0  0  0  0  0999 V2000
   16.4503   -9.5881   12.2560 C   0  0  0  0  0  0  0  0  0  0  0  0
   15.4713   -9.6182   13.2419 C   0  0  0  0  0  0  0  0  0  0  0  0
   15.4605  -10.6596   14.1776 C   0  0  0  0  0  0  0  0  0  0  0  0
   16.4143  -11.6897   14.1345 C   0  0  0  0  0  0  0  0  0  0  0  0
   17.4074  -11.6331   13.1482 C   0  0  0  0  0  0  0  0  0  0  0  0
   17.4208  -10.5886   12.2091 C   0  0  0  0  0  0  0  0  0  0  0  0
   16.4657   -8.3128   11.1014 Cl  0  0  0  0  0  0  0  0  0  0  0  0
   16.3690  -12.8943   15.4607 S   0  0  0  0  0  0  0  0  0  0  0  0
   16.6298  -14.5141   14.6524 C   0  0  0  0  0  0  0  0  0  0  0  0
   15.3570  -15.2803   14.2785 C   0  0  0  0  0  0  0  0  0  0  0  0
   15.4355  -16.4224   13.8211 O   0  0  0  0  0  0  0  0  0  0  0  0
   14.1453  -14.6769   14.4950 N   0  0  0  0  0  0  0  0  0  0  0  0
   12.8472  -15.2973   14.1701 C   0  0  1  0  0  0  0  0  0  0  0  0
   12.1266  -15.7759   15.4431 C   0  0  0  0  0  0  0  0  0  0  0  0
   12.8482  -16.8325   16.2702 C   0  0  0  0  0  0  0  0  0  0  0  0
   13.4741  -16.4576   17.4710 C   0  0  0  0  0  0  0  0  0  0  0  0
   14.1270  -17.4078   18.2671 C   0  0  0  0  0  0  0  0  0  0  0  0
   14.2008  -18.7554   17.9320 C   0  0  0  0  0  0  0  0  0  0  0  0
   13.5664  -19.1179   16.7246 C   0  0  0  0  0  0  0  0  0  0  0  0
   12.9048  -18.1695   15.9111 C   0  0  0  0  0  0  0  0  0  0  0  0
   14.8424  -19.7505   18.7014 N   0  0  0  0  0  0  0  0  0  0  0  0
   15.5531  -19.7878   19.9058 C   0  0  0  0  0  0  0  0  0  0  0  0
   15.7871  -18.7208   20.6855 N   0  0  0  0  0  0  0  0  0  0  0  0
   16.0596  -20.9590   20.3583 N   0  0  0  0  0  0  0  0  0  0  0  0
   11.9806  -14.2262   13.4577 C   0  0  0  0  0  0  0  0  0  0  0  0
   12.2963  -13.0374   13.4070 O   0  0  0  0  0  0  0  0  0  0  0  0
   10.7945  -14.6141   12.9015 N   0  0  0  0  0  0  0  0  0  0  0  0
   14.7166   -8.8367   13.2937 H   0  0  0  0  0  0  0  0  0  0  0  0
   14.6953  -10.6491   14.9513 H   0  0  0  0  0  0  0  0  0  0  0  0
   18.2032  -12.3717   13.1069 H   0  0  0  0  0  0  0  0  0  0  0  0
   18.1968  -10.5502   11.4469 H   0  0  0  0  0  0  0  0  0  0  0  0
   17.1424  -15.1349   15.3997 H   0  0  0  0  0  0  0  0  0  0  0  0
   17.2875  -14.4463   13.7828 H   0  0  0  0  0  0  0  0  0  0  0  0
   14.1363  -13.7069   14.7978 H   0  0  0  0  0  0  0  0  0  0  0  0
   13.0024  -16.1303   13.4745 H   0  0  0  0  0  0  0  0  0  0  0  0
   11.1301  -16.1730   15.1938 H   0  0  0  0  0  0  0  0  0  0  0  0
   11.9298  -14.9051   16.0804 H   0  0  0  0  0  0  0  0  0  0  0  0
   13.4492  -15.4238   17.7959 H   0  0  0  0  0  0  0  0  0  0  0  0
   14.5631  -16.9886   19.1609 H   0  0  0  0  0  0  0  0  0  0  0  0
   13.5771  -20.1513   16.3877 H   0  0  0  0  0  0  0  0  0  0  0  0
   12.4303  -18.5108   14.9922 H   0  0  0  0  0  0  0  0  0  0  0  0
   14.7888  -20.6599   18.2649 H   0  0  0  0  0  0  0  0  0  0  0  0
   16.3050  -18.7755   21.5519 H   0  0  0  0  0  0  0  0  0  0  0  0
   15.9474  -21.8282   19.8541 H   0  0  0  0  0  0  0  0  0  0  0  0
   16.5765  -21.0037   21.2296 H   0  0  0  0  0  0  0  0  0  0  0  0
   10.2598  -13.8993   12.4192 H   0  0  0  0  0  0  0  0  0  0  0  0
   10.4553  -15.5656   12.8411 H   0  0  0  0  0  0  0  0  0  0  0  0
   15.4507  -17.8142   20.4297 H   0  0  0  0  0  0  0  0  0  0  0  0
  1  2  2  0  0  0  0
  1  6  1  0  0  0  0
  1  7  1  0  0  0  0
  2  3  1  0  0  0  0
  2 28  1  0  0  0  0
  3  4  2  0  0  0  0
  3 29  1  0  0  0  0
  4  5  1  0  0  0  0
  4  8  1  0  0  0  0
  5  6  2  0  0  0  0
  5 30  1  0  0  0  0
  6 31  1  0  0  0  0
  8  9  1  0  0  0  0
  9 10  1  0  0  0  0
  9 32  1  0  0  0  0
  9 33  1  0  0  0  0
 10 11  2  0  0  0  0
 10 12  1  0  0  0  0
 12 13  1  0  0  0  0
 12 34  1  0  0  0  0
 13 14  1  0  0  0  0
 13 25  1  0  0  0  0
 13 35  1  6  0  0  0
 14 15  1  0  0  0  0
 14 36  1  0  0  0  0
 14 37  1  0  0  0  0
 15 16  2  0  0  0  0
 15 20  1  0  0  0  0
 16 17  1  0  0  0  0
 16 38  1  0  0  0  0
 17 18  2  0  0  0  0
 17 39  1  0  0  0  0
 18 19  1  0  0  0  0
 18 21  1  0  0  0  0
 19 20  2  0  0  0  0
 19 40  1  0  0  0  0
 20 41  1  0  0  0  0
 21 22  1  0  0  0  0
 21 42  1  0  0  0  0
 22 23  2  0  0  0  0
 22 24  1  0  0  0  0
 23 43  1  0  0  0  0
 23 48  1  0  0  0  0
 24 44  1  0  0  0  0
 24 45  1  0  0  0  0
 25 26  2  0  0  0  0
 25 27  1  0  0  0  0
 27 46  1  0  0  0  0
 27 47  1  0  0  0  0
M  END
$$$$
