4NM
 OpenBabel04051919443D

 18 18  0  0  0  0  0  0  0  0999 V2000
   33.5406  -45.5257  -10.6705 C   0  0  0  0  0  0  0  0  0  0  0  0
   35.0101  -46.6010  -10.5908 S   0  0  0  0  0  0  0  0  0  0  0  0
   31.4291  -46.4005   -9.6338 C   0  0  0  0  0  0  0  0  0  0  0  0
   30.6520  -46.7231   -8.5280 C   0  0  0  0  0  0  0  0  0  0  0  0
   31.1137  -46.4047   -7.2392 C   0  0  0  0  0  0  0  0  0  0  0  0
   30.2594  -46.7263   -6.0926 N   0  0  0  0  0  0  0  0  0  0  0  0
   30.5486  -46.2067   -5.0016 O   0  0  0  0  0  0  0  0  0  0  0  0
   29.3062  -47.4887   -6.2756 O   0  0  0  0  0  0  0  0  0  0  0  0
   32.3509  -45.7734   -7.0544 C   0  0  0  0  0  0  0  0  0  0  0  0
   32.6692  -45.7714   -9.4690 C   0  0  0  0  0  0  0  0  0  0  0  0
   33.1204  -45.4545   -8.1723 C   0  0  0  0  0  0  0  0  0  0  0  0
   32.9978  -45.7522  -11.5956 H   0  0  0  0  0  0  0  0  0  0  0  0
   33.8264  -44.4680  -10.7226 H   0  0  0  0  0  0  0  0  0  0  0  0
   35.5897  -46.1865  -11.7184 H   0  0  0  0  0  0  0  0  0  0  0  0
   31.0681  -46.6676  -10.6245 H   0  0  0  0  0  0  0  0  0  0  0  0
   29.6994  -47.2218   -8.6745 H   0  0  0  0  0  0  0  0  0  0  0  0
   32.7287  -45.5443   -6.0599 H   0  0  0  0  0  0  0  0  0  0  0  0
   34.0978  -44.9946   -8.0321 H   0  0  0  0  0  0  0  0  0  0  0  0
  1  2  1  0  0  0  0
  1 10  1  0  0  0  0
  1 12  1  0  0  0  0
  1 13  1  0  0  0  0
  2 14  1  0  0  0  0
  3  4  2  0  0  0  0
  3 10  1  0  0  0  0
  3 15  1  0  0  0  0
  4  5  1  0  0  0  0
  4 16  1  0  0  0  0
  5  6  1  0  0  0  0
  5  9  2  0  0  0  0
  6  7  2  0  0  0  0
  6  8  2  0  0  0  0
  9 11  1  0  0  0  0
  9 17  1  0  0  0  0
 10 11  2  0  0  0  0
 11 18  1  0  0  0  0
M  END
$$$$
