50U
 OpenBabel04051920513D

 61 63  0  0  1  0  0  0  0  0999 V2000
  -28.2430    1.1819   15.6727 N   0  0  0  0  0  0  0  0  0  0  0  0
  -27.4337    0.6845   14.5657 C   0  0  2  0  0  0  0  0  0  0  0  0
  -26.3030    1.7004   14.2636 C   0  0  0  0  0  0  0  0  0  0  0  0
  -26.4507    2.8868   14.2924 O   0  0  0  0  0  0  0  0  0  0  0  0
  -25.1350    1.0687   13.9131 N   0  0  0  0  0  0  0  0  0  0  0  0
  -23.9883    1.8409   13.5471 C   0  0  0  0  0  0  0  0  0  0  0  0
  -22.8982    1.6683   14.5715 C   0  0  0  0  0  0  0  0  0  0  0  0
  -23.1165    2.0105   15.9134 C   0  0  0  0  0  0  0  0  0  0  0  0
  -22.0957    1.8515   16.8630 C   0  0  0  0  0  0  0  0  0  0  0  0
  -20.8399    1.3486   16.4792 C   0  0  0  0  0  0  0  0  0  0  0  0
  -19.7404    1.1520   17.4264 C   0  0  0  0  0  0  0  0  0  0  0  0
  -19.5408    1.9540   18.4434 N   0  0  0  0  0  0  0  0  0  0  0  0
  -18.9025    0.1516   17.2431 N   0  0  0  0  0  0  0  0  0  0  0  0
  -20.6321    1.0085   15.1347 C   0  0  0  0  0  0  0  0  0  0  0  0
  -21.6456    1.1664   14.1943 C   0  0  0  0  0  0  0  0  0  0  0  0
  -28.4115    0.6701   13.4142 C   0  0  0  0  0  0  0  0  0  0  0  0
  -29.8049    0.6582   14.0445 C   0  0  0  0  0  0  0  0  0  0  0  0
  -29.6543    1.2473   15.4157 C   0  0  0  0  0  0  0  0  0  0  0  0
  -27.6584    1.4434   16.8758 C   0  0  0  0  0  0  0  0  0  0  0  0
  -28.5273    2.0016   17.9656 C   0  0  0  0  0  0  0  0  0  0  0  0
  -28.5156    1.0398   19.1574 C   0  0  0  0  0  0  0  0  0  0  0  0
  -29.0846   -0.3719   18.8561 C   0  0  0  0  0  0  0  0  0  0  0  0
  -28.7726   -1.3780   19.9762 C   0  0  0  0  0  0  0  0  0  0  0  0
  -29.1760   -2.8158   19.6276 C   0  0  0  0  0  0  0  0  0  0  0  0
  -30.6121   -2.9218   19.1299 C   0  0  0  0  0  0  0  0  0  0  0  0
  -31.0902   -1.7771   18.2392 C   0  0  0  0  0  0  0  0  0  0  0  0
  -30.5856   -0.3799   18.5892 C   0  0  0  0  0  0  0  0  0  0  0  0
  -26.4635    1.2019   17.0537 O   0  0  0  0  0  0  0  0  0  0  0  0
  -26.9757   -0.2937   14.7854 H   0  0  0  0  0  0  0  0  0  0  0  0
  -25.0905    0.0669   14.0057 H   0  0  0  0  0  0  0  0  0  0  0  0
  -24.2597    2.8961   13.4444 H   0  0  0  0  0  0  0  0  0  0  0  0
  -23.6759    1.4708   12.5621 H   0  0  0  0  0  0  0  0  0  0  0  0
  -24.0947    2.3959   16.2172 H   0  0  0  0  0  0  0  0  0  0  0  0
  -22.2994    2.1147   17.9001 H   0  0  0  0  0  0  0  0  0  0  0  0
  -18.7739    1.8259   19.0793 H   0  0  0  0  0  0  0  0  0  0  0  0
  -19.0649   -0.4744   16.4633 H   0  0  0  0  0  0  0  0  0  0  0  0
  -18.1303   -0.0137   17.8638 H   0  0  0  0  0  0  0  0  0  0  0  0
  -19.6655    0.6259   14.8099 H   0  0  0  0  0  0  0  0  0  0  0  0
  -21.4696    0.9001   13.1537 H   0  0  0  0  0  0  0  0  0  0  0  0
  -28.2621   -0.2105   12.7922 H   0  0  0  0  0  0  0  0  0  0  0  0
  -28.2953    1.5696   12.7995 H   0  0  0  0  0  0  0  0  0  0  0  0
  -30.1751   -0.3682   14.1190 H   0  0  0  0  0  0  0  0  0  0  0  0
  -30.5038    1.2527   13.4607 H   0  0  0  0  0  0  0  0  0  0  0  0
  -30.0044    2.2814   15.5147 H   0  0  0  0  0  0  0  0  0  0  0  0
  -30.1713    0.6662   16.1694 H   0  0  0  0  0  0  0  0  0  0  0  0
  -29.5498    2.1980   17.6409 H   0  0  0  0  0  0  0  0  0  0  0  0
  -28.0782    2.9657   18.2391 H   0  0  0  0  0  0  0  0  0  0  0  0
  -29.0842    1.5052   19.9688 H   0  0  0  0  0  0  0  0  0  0  0  0
  -27.4721    0.9317   19.4918 H   0  0  0  0  0  0  0  0  0  0  0  0
  -28.5813   -0.7314   17.9560 H   0  0  0  0  0  0  0  0  0  0  0  0
  -29.3038   -1.0796   20.8892 H   0  0  0  0  0  0  0  0  0  0  0  0
  -27.6963   -1.3579   20.1809 H   0  0  0  0  0  0  0  0  0  0  0  0
  -29.0652   -3.4593   20.5170 H   0  0  0  0  0  0  0  0  0  0  0  0
  -28.5017   -3.2178   18.8577 H   0  0  0  0  0  0  0  0  0  0  0  0
  -31.2756   -2.9821   20.0015 H   0  0  0  0  0  0  0  0  0  0  0  0
  -30.7219   -3.8617   18.5659 H   0  0  0  0  0  0  0  0  0  0  0  0
  -32.1869   -1.7645   18.2722 H   0  0  0  0  0  0  0  0  0  0  0  0
  -30.7828   -2.0041   17.2116 H   0  0  0  0  0  0  0  0  0  0  0  0
  -30.8246    0.2810   17.7608 H   0  0  0  0  0  0  0  0  0  0  0  0
  -31.1396    0.0139   19.4454 H   0  0  0  0  0  0  0  0  0  0  0  0
  -20.1748    2.7411   18.5797 H   0  0  0  0  0  0  0  0  0  0  0  0
  1  2  1  0  0  0  0
  1 18  1  0  0  0  0
  1 19  1  0  0  0  0
  2  3  1  0  0  0  0
  2 16  1  0  0  0  0
  2 29  1  1  0  0  0
  3  4  2  0  0  0  0
  3  5  1  0  0  0  0
  5  6  1  0  0  0  0
  5 30  1  0  0  0  0
  6  7  1  0  0  0  0
  6 31  1  0  0  0  0
  6 32  1  0  0  0  0
  7  8  2  0  0  0  0
  7 15  1  0  0  0  0
  8  9  1  0  0  0  0
  8 33  1  0  0  0  0
  9 10  2  0  0  0  0
  9 34  1  0  0  0  0
 10 11  1  0  0  0  0
 10 14  1  0  0  0  0
 11 12  2  0  0  0  0
 11 13  1  0  0  0  0
 12 35  1  0  0  0  0
 12 61  1  0  0  0  0
 13 36  1  0  0  0  0
 13 37  1  0  0  0  0
 14 15  2  0  0  0  0
 14 38  1  0  0  0  0
 15 39  1  0  0  0  0
 16 17  1  0  0  0  0
 16 40  1  0  0  0  0
 16 41  1  0  0  0  0
 17 18  1  0  0  0  0
 17 42  1  0  0  0  0
 17 43  1  0  0  0  0
 18 44  1  0  0  0  0
 18 45  1  0  0  0  0
 19 20  1  0  0  0  0
 19 28  2  0  0  0  0
 20 21  1  0  0  0  0
 20 46  1  0  0  0  0
 20 47  1  0  0  0  0
 21 22  1  0  0  0  0
 21 48  1  0  0  0  0
 21 49  1  0  0  0  0
 22 23  1  0  0  0  0
 22 27  1  0  0  0  0
 22 50  1  0  0  0  0
 23 24  1  0  0  0  0
 23 51  1  0  0  0  0
 23 52  1  0  0  0  0
 24 25  1  0  0  0  0
 24 53  1  0  0  0  0
 24 54  1  0  0  0  0
 25 26  1  0  0  0  0
 25 55  1  0  0  0  0
 25 56  1  0  0  0  0
 26 27  1  0  0  0  0
 26 57  1  0  0  0  0
 26 58  1  0  0  0  0
 27 59  1  0  0  0  0
 27 60  1  0  0  0  0
M  END
$$$$
