512
 OpenBabel04051918093D

 17 17  0  0  0  0  0  0  0  0999 V2000
   45.2230   12.9640    1.1433 C   0  0  0  0  0  0  0  0  0  0  0  0
   45.7681   13.3937    2.3334 C   0  0  0  0  0  0  0  0  0  0  0  0
   44.4138   14.2323    0.3658 S   0  0  0  0  0  0  0  0  0  0  0  0
   44.8030   15.3506    1.6314 C   0  0  0  0  0  0  0  0  0  0  0  0
   45.5695   14.7725    2.6349 C   0  0  0  0  0  0  0  0  0  0  0  0
   44.2996   16.7442    1.5019 C   0  0  0  0  0  0  0  0  0  0  0  0
   43.6315   17.0458    0.4533 O   0  0  0  0  0  0  0  0  0  0  0  0
   46.0077   15.3511    3.8000 O   0  0  0  0  0  0  0  0  0  0  0  0
   47.2515   16.0926    3.6402 C   0  0  0  0  0  0  0  0  0  0  0  0
   47.5969   17.0181    4.8515 C   0  0  0  0  0  0  0  0  0  0  0  0
   48.7282   17.6211    4.7604 O   0  0  0  0  0  0  0  0  0  0  0  0
   44.5499   17.5859    2.4096 O   0  0  0  0  0  0  0  0  0  0  0  0
   46.8283   17.0141    5.8527 O   0  0  0  0  0  0  0  0  0  0  0  0
   46.7473   12.2245    3.4506 Br  0  0  0  0  0  0  0  0  0  0  0  0
   45.2617   11.9756    0.6992 H   0  0  0  0  0  0  0  0  0  0  0  0
   47.1812   16.7378    2.7630 H   0  0  0  0  0  0  0  0  0  0  0  0
   48.0862   15.3866    3.5100 H   0  0  0  0  0  0  0  0  0  0  0  0
  1  2  2  0  0  0  0
  1  3  1  0  0  0  0
  1 15  1  0  0  0  0
  2  5  1  0  0  0  0
  2 14  1  0  0  0  0
  3  4  1  0  0  0  0
  4  5  2  0  0  0  0
  4  6  1  0  0  0  0
  5  8  1  0  0  0  0
  6  7  2  0  0  0  0
  6 12  1  0  0  0  0
  8  9  1  0  0  0  0
  9 10  1  0  0  0  0
  9 16  1  0  0  0  0
  9 17  1  0  0  0  0
 10 11  2  0  0  0  0
 10 13  1  0  0  0  0
M  END
$$$$
