521
 OpenBabel04051918323D

 29 31  0  0  0  0  0  0  0  0999 V2000
   29.4005  -32.5385    0.9974 C   0  0  0  0  0  0  0  0  0  0  0  0
   30.6326  -33.1728    0.8536 C   0  0  0  0  0  0  0  0  0  0  0  0
   31.6719  -32.5537    0.1373 C   0  0  0  0  0  0  0  0  0  0  0  0
   31.4966  -31.2808   -0.4585 C   0  0  0  0  0  0  0  0  0  0  0  0
   30.2407  -30.6571   -0.2969 C   0  0  0  0  0  0  0  0  0  0  0  0
   29.1998  -31.2813    0.4260 C   0  0  0  0  0  0  0  0  0  0  0  0
   32.6261  -30.6326   -1.2026 C   0  0  0  0  0  0  0  0  0  0  0  0
   34.4346  -28.5342   -3.7566 N   0  0  0  0  0  0  0  0  0  0  0  0
   35.2748  -27.5053   -5.8425 N   0  0  0  0  0  0  0  0  0  0  0  0
   34.0367  -29.3995   -2.7009 C   0  0  0  0  0  0  0  0  0  0  0  0
   32.6839  -29.8080   -2.3384 C   0  0  0  0  0  0  0  0  0  0  0  0
   34.9410  -29.9441   -1.8217 C   0  0  0  0  0  0  0  0  0  0  0  0
   34.2361  -30.8981   -0.6098 S   0  0  0  0  0  0  0  0  0  0  0  0
   34.4709  -27.0541   -3.6123 C   0  0  0  0  0  0  0  0  0  0  0  0
   34.9830  -26.4892   -4.9227 C   0  0  0  0  0  0  0  0  0  0  0  0
   35.1390  -25.2871   -5.1758 O   0  0  0  0  0  0  0  0  0  0  0  0
   34.9807  -29.0541   -5.2799 S   0  0  0  0  0  0  0  0  0  0  0  0
   36.2438  -29.7338   -5.1547 O   0  0  0  0  0  0  0  0  0  0  0  0
   33.8796  -29.6063   -6.0247 O   0  0  0  0  0  0  0  0  0  0  0  0
   31.3165  -29.3302   -3.2674 Cl  0  0  0  0  0  0  0  0  0  0  0  0
   28.5994  -33.0324    1.5546 H   0  0  0  0  0  0  0  0  0  0  0  0
   30.8039  -34.1624    1.3021 H   0  0  0  0  0  0  0  0  0  0  0  0
   32.6257  -33.0774    0.0426 H   0  0  0  0  0  0  0  0  0  0  0  0
   30.0544  -29.6750   -0.7250 H   0  0  0  0  0  0  0  0  0  0  0  0
   28.2319  -30.7850    0.5416 H   0  0  0  0  0  0  0  0  0  0  0  0
   35.6289  -27.3236   -6.7768 H   0  0  0  0  0  0  0  0  0  0  0  0
   36.0105  -29.8098   -1.8503 H   0  0  0  0  0  0  0  0  0  0  0  0
   35.1508  -26.7435   -2.8135 H   0  0  0  0  0  0  0  0  0  0  0  0
   33.4665  -26.6632   -3.4363 H   0  0  0  0  0  0  0  0  0  0  0  0
  1  2  2  0  0  0  0
  1  6  1  0  0  0  0
  1 21  1  0  0  0  0
  2  3  1  0  0  0  0
  2 22  1  0  0  0  0
  3  4  2  0  0  0  0
  3 23  1  0  0  0  0
  4  5  1  0  0  0  0
  4  7  1  0  0  0  0
  5  6  2  0  0  0  0
  5 24  1  0  0  0  0
  6 25  1  0  0  0  0
  7 11  2  0  0  0  0
  7 13  1  0  0  0  0
  8 10  1  0  0  0  0
  8 14  1  0  0  0  0
  8 17  1  0  0  0  0
  9 15  1  0  0  0  0
  9 17  1  0  0  0  0
  9 26  1  0  0  0  0
 10 11  1  0  0  0  0
 10 12  2  0  0  0  0
 11 20  1  0  0  0  0
 12 13  1  0  0  0  0
 12 27  1  0  0  0  0
 14 15  1  0  0  0  0
 14 28  1  0  0  0  0
 14 29  1  0  0  0  0
 15 16  2  0  0  0  0
 17 18  2  0  0  0  0
 17 19  2  0  0  0  0
M  END
$$$$
