527
 OpenBabel04051918593D

 60 63  0  0  0  0  0  0  0  0999 V2000
   44.6034   14.2294    0.6927 S   0  0  0  0  0  0  0  0  0  0  0  0
   44.7693   15.6057    1.7003 C   0  0  0  0  0  0  0  0  0  0  0  0
   45.7073   15.3745    2.6744 C   0  0  0  0  0  0  0  0  0  0  0  0
   46.2522   14.0636    2.5971 C   0  0  0  0  0  0  0  0  0  0  0  0
   45.7981   13.2991    1.5310 C   0  0  0  0  0  0  0  0  0  0  0  0
   44.0480   16.8794    1.4526 C   0  0  0  0  0  0  0  0  0  0  0  0
   43.5420   16.9348    0.2574 O   0  0  0  0  0  0  0  0  0  0  0  0
   43.9480   17.8125    2.2940 O   0  0  0  0  0  0  0  0  0  0  0  0
   46.1041   11.9006    1.1143 C   0  0  0  0  0  0  0  0  0  0  0  0
   47.3849   11.3197    1.2884 C   0  0  0  0  0  0  0  0  0  0  0  0
   47.6227    9.9781    0.9097 C   0  0  0  0  0  0  0  0  0  0  0  0
   46.5433    9.1974    0.3988 C   0  0  0  0  0  0  0  0  0  0  0  0
   45.2714    9.7565    0.1955 C   0  0  0  0  0  0  0  0  0  0  0  0
   45.0697   11.1079    0.5424 C   0  0  0  0  0  0  0  0  0  0  0  0
   47.4110   13.4654    3.9691 Br  0  0  0  0  0  0  0  0  0  0  0  0
   45.9573   16.2631    3.6241 O   0  0  0  0  0  0  0  0  0  0  0  0
   47.1794   16.9751    3.4254 C   0  0  0  0  0  0  0  0  0  0  0  0
   47.4398   17.7236    4.7357 C   0  0  0  0  0  0  0  0  0  0  0  0
   48.6607   18.1675    4.8418 O   0  0  0  0  0  0  0  0  0  0  0  0
   46.5088   17.7997    5.5735 O   0  0  0  0  0  0  0  0  0  0  0  0
   48.9040    9.4901    1.1393 N   0  0  0  0  0  0  0  0  0  0  0  0
   49.1908    8.1215    1.5084 C   0  0  0  0  0  0  0  0  0  0  0  0
   50.7104    7.9825    1.5963 C   0  0  0  0  0  0  0  0  0  0  0  0
   51.1302    6.6302    2.1384 C   0  0  0  0  0  0  0  0  0  0  0  0
   50.4005    6.3783    3.3880 N   0  0  0  0  0  0  0  0  0  0  0  0
   48.9362    6.4393    3.3581 C   0  0  0  0  0  0  0  0  0  0  0  0
   48.4996    7.7814    2.8254 C   0  0  0  0  0  0  0  0  0  0  0  0
   51.0975    5.4550    4.6003 S   0  0  0  0  0  0  0  0  0  0  0  0
   50.2231    5.5696    5.7599 O   0  0  0  0  0  0  0  0  0  0  0  0
   52.4827    5.8501    4.6785 O   0  0  0  0  0  0  0  0  0  0  0  0
   50.9020    3.7724    3.9308 C   0  0  0  0  0  0  0  0  0  0  0  0
   51.2643    2.7856    5.0173 C   0  0  0  0  0  0  0  0  0  0  0  0
   52.6249    2.4361    5.1589 C   0  0  0  0  0  0  0  0  0  0  0  0
   53.0099    1.5941    6.2210 C   0  0  0  0  0  0  0  0  0  0  0  0
   52.0204    1.0812    7.1016 C   0  0  0  0  0  0  0  0  0  0  0  0
   50.6562    1.4245    6.9606 C   0  0  0  0  0  0  0  0  0  0  0  0
   50.2673    2.2795    5.9029 C   0  0  0  0  0  0  0  0  0  0  0  0
   48.2312   11.8908    1.7038 H   0  0  0  0  0  0  0  0  0  0  0  0
   46.7019    8.1543    0.1066 H   0  0  0  0  0  0  0  0  0  0  0  0
   44.4297    9.1790   -0.2198 H   0  0  0  0  0  0  0  0  0  0  0  0
   44.0910   11.5743    0.3748 H   0  0  0  0  0  0  0  0  0  0  0  0
   47.1002   17.7064    2.6096 H   0  0  0  0  0  0  0  0  0  0  0  0
   48.0183   16.2939    3.2260 H   0  0  0  0  0  0  0  0  0  0  0  0
   49.6696   10.1631    1.0945 H   0  0  0  0  0  0  0  0  0  0  0  0
   48.8166    7.4611    0.7218 H   0  0  0  0  0  0  0  0  0  0  0  0
   51.1087    8.7662    2.2560 H   0  0  0  0  0  0  0  0  0  0  0  0
   51.1394    8.1253    0.5963 H   0  0  0  0  0  0  0  0  0  0  0  0
   52.2123    6.6507    2.3302 H   0  0  0  0  0  0  0  0  0  0  0  0
   50.9294    5.8499    1.3952 H   0  0  0  0  0  0  0  0  0  0  0  0
   48.5434    6.3295    4.3782 H   0  0  0  0  0  0  0  0  0  0  0  0
   48.5226    5.6299    2.7478 H   0  0  0  0  0  0  0  0  0  0  0  0
   47.4135    7.7596    2.6722 H   0  0  0  0  0  0  0  0  0  0  0  0
   48.7267    8.5535    3.5720 H   0  0  0  0  0  0  0  0  0  0  0  0
   51.5525    3.6469    3.0587 H   0  0  0  0  0  0  0  0  0  0  0  0
   49.8569    3.6313    3.6279 H   0  0  0  0  0  0  0  0  0  0  0  0
   53.3826    2.8315    4.4547 H   0  0  0  0  0  0  0  0  0  0  0  0
   54.0692    1.3446    6.3710 H   0  0  0  0  0  0  0  0  0  0  0  0
   52.3197    0.4014    7.9013 H   0  0  0  0  0  0  0  0  0  0  0  0
   49.9078    1.0406    7.6739 H   0  0  0  0  0  0  0  0  0  0  0  0
   49.2056    2.5602    5.7781 H   0  0  0  0  0  0  0  0  0  0  0  0
  1  2  1  0  0  0  0
  1  5  1  0  0  0  0
  2  3  2  0  0  0  0
  2  6  1  0  0  0  0
  3  4  1  0  0  0  0
  3 16  1  0  0  0  0
  4  5  2  0  0  0  0
  4 15  1  0  0  0  0
  5  9  1  0  0  0  0
  6  7  2  0  0  0  0
  6  8  1  0  0  0  0
  9 10  2  0  0  0  0
  9 14  1  0  0  0  0
 10 11  1  0  0  0  0
 10 38  1  0  0  0  0
 11 12  2  0  0  0  0
 11 21  1  0  0  0  0
 12 13  1  0  0  0  0
 12 39  1  0  0  0  0
 13 14  2  0  0  0  0
 13 40  1  0  0  0  0
 14 41  1  0  0  0  0
 16 17  1  0  0  0  0
 17 18  1  0  0  0  0
 17 42  1  0  0  0  0
 17 43  1  0  0  0  0
 18 19  2  0  0  0  0
 18 20  1  0  0  0  0
 21 22  1  0  0  0  0
 21 44  1  0  0  0  0
 22 23  1  0  0  0  0
 22 27  1  0  0  0  0
 22 45  1  0  0  0  0
 23 24  1  0  0  0  0
 23 46  1  0  0  0  0
 23 47  1  0  0  0  0
 24 25  1  0  0  0  0
 24 48  1  0  0  0  0
 24 49  1  0  0  0  0
 25 26  1  0  0  0  0
 25 28  1  0  0  0  0
 26 27  1  0  0  0  0
 26 50  1  0  0  0  0
 26 51  1  0  0  0  0
 27 52  1  0  0  0  0
 27 53  1  0  0  0  0
 28 29  2  0  0  0  0
 28 30  2  0  0  0  0
 28 31  1  0  0  0  0
 31 32  1  0  0  0  0
 31 54  1  0  0  0  0
 31 55  1  0  0  0  0
 32 33  2  0  0  0  0
 32 37  1  0  0  0  0
 33 34  1  0  0  0  0
 33 56  1  0  0  0  0
 34 35  2  0  0  0  0
 34 57  1  0  0  0  0
 35 36  1  0  0  0  0
 35 58  1  0  0  0  0
 36 37  2  0  0  0  0
 36 59  1  0  0  0  0
 37 60  1  0  0  0  0
M  END
$$$$
