5AH
 OpenBabel04051920053D

 98102  0  0  1  0  0  0  0  0999 V2000
   14.7277   17.6249    3.8980 C   0  0  0  0  0  0  0  0  0  0  0  0
   18.7191   17.0095   11.8740 C   0  0  0  0  0  0  0  0  0  0  0  0
   18.3055   18.1260   11.1955 N   0  0  0  0  0  0  0  0  0  0  0  0
   17.0475   18.1449   10.6330 C   0  0  0  0  0  0  0  0  0  0  0  0
   16.2073   17.0268   10.7423 C   0  0  0  0  0  0  0  0  0  0  0  0
   16.6618   15.8963   11.4346 C   0  0  0  0  0  0  0  0  0  0  0  0
   17.9272   15.8855   12.0078 C   0  0  0  0  0  0  0  0  0  0  0  0
   11.8726   24.0270    4.1534 C   0  0  1  0  0  0  0  0  0  0  0  0
   13.0719   23.1100    4.6027 C   0  0  0  0  0  0  0  0  0  0  0  0
   14.0208   23.7054    5.6939 C   0  0  0  0  0  0  0  0  0  0  0  0
   12.3887   25.3172    3.8055 O   0  0  0  0  0  0  0  0  0  0  0  0
   11.1405   23.4068    2.9104 C   0  0  0  0  0  0  0  0  0  0  0  0
    9.6838   23.8373    2.6544 C   0  0  0  0  0  0  0  0  0  0  0  0
    9.3823   25.1197    2.1490 C   0  0  0  0  0  0  0  0  0  0  0  0
    8.0513   25.5226    1.9412 C   0  0  0  0  0  0  0  0  0  0  0  0
    6.9909   24.6551    2.2638 C   0  0  0  0  0  0  0  0  0  0  0  0
    7.2752   23.3714    2.7391 C   0  0  0  0  0  0  0  0  0  0  0  0
    8.6060   22.9657    2.9469 C   0  0  0  0  0  0  0  0  0  0  0  0
   10.8277   24.1511    5.2953 C   0  0  0  0  0  0  0  0  0  0  0  0
   10.1828   25.3717    5.3911 N   0  0  0  0  0  0  0  0  0  0  0  0
    9.1299   25.5835    6.3745 C   0  0  2  0  0  0  0  0  0  0  0  0
    7.9745   26.5414    5.9249 C   0  0  2  0  0  0  0  0  0  0  0  0
    8.4016   27.6302    5.0836 O   0  0  0  0  0  0  0  0  0  0  0  0
    7.3849   27.1518    7.2249 C   0  0  0  0  0  0  0  0  0  0  0  0
    8.5619   27.0890    8.1718 C   0  0  0  0  0  0  0  0  0  0  0  0
    8.7223   27.7705    9.3798 C   0  0  0  0  0  0  0  0  0  0  0  0
    9.9103   27.5688   10.1123 C   0  0  0  0  0  0  0  0  0  0  0  0
   10.9054   26.6911    9.6409 C   0  0  0  0  0  0  0  0  0  0  0  0
   10.7333   25.9985    8.4208 C   0  0  0  0  0  0  0  0  0  0  0  0
    9.5630   26.2154    7.6868 C   0  0  0  0  0  0  0  0  0  0  0  0
   10.5237   23.1887    6.0038 O   0  0  0  0  0  0  0  0  0  0  0  0
   14.7230   22.6330    6.4541 N   0  0  0  0  0  0  0  0  0  0  0  0
   15.3943   23.0461    7.7155 C   0  0  0  0  0  0  0  0  0  0  0  0
   15.8349   21.8068    8.5156 C   0  0  0  0  0  0  0  0  0  0  0  0
   14.8719   20.9853    9.1302 C   0  0  0  0  0  0  0  0  0  0  0  0
   15.2620   19.8027    9.8083 C   0  0  0  0  0  0  0  0  0  0  0  0
   16.6258   19.4000    9.9055 C   0  0  0  0  0  0  0  0  0  0  0  0
   17.5732   20.2465    9.2733 C   0  0  0  0  0  0  0  0  0  0  0  0
   17.1904   21.4228    8.5808 C   0  0  0  0  0  0  0  0  0  0  0  0
   15.6036   21.8445    5.6224 N   0  0  0  0  0  0  0  0  0  0  0  0
   15.2368   20.5527    5.3018 C   0  0  0  0  0  0  0  0  0  0  0  0
   16.2421   19.6790    4.4838 C   0  0  1  0  0  0  0  0  0  0  0  0
   16.9151   18.8465    5.4725 N   0  0  0  0  0  0  0  0  0  0  0  0
   18.2399   19.0100    5.7639 C   0  0  0  0  0  0  0  0  0  0  0  0
   18.6220   18.1190    6.7250 O   0  0  0  0  0  0  0  0  0  0  0  0
   19.9920   18.1853    7.0898 C   0  0  0  0  0  0  0  0  0  0  0  0
   18.9604   19.8026    5.2175 O   0  0  0  0  0  0  0  0  0  0  0  0
   15.5939   18.7825    3.3595 C   0  0  0  0  0  0  0  0  0  0  0  0
   14.7188   19.6362    2.4223 C   0  0  0  0  0  0  0  0  0  0  0  0
   16.7263   18.1470    2.5172 C   0  0  0  0  0  0  0  0  0  0  0  0
   14.2091   20.0412    5.7144 O   0  0  0  0  0  0  0  0  0  0  0  0
   14.3003   17.0322    3.0754 H   0  0  0  0  0  0  0  0  0  0  0  0
   13.8925   17.9957    4.4983 H   0  0  0  0  0  0  0  0  0  0  0  0
   15.3186   16.9406    4.5171 H   0  0  0  0  0  0  0  0  0  0  0  0
   19.7185   17.0189   12.3192 H   0  0  0  0  0  0  0  0  0  0  0  0
   15.2141   17.0163   10.2936 H   0  0  0  0  0  0  0  0  0  0  0  0
   16.0269   15.0199   11.5297 H   0  0  0  0  0  0  0  0  0  0  0  0
   18.3030   15.0176   12.5544 H   0  0  0  0  0  0  0  0  0  0  0  0
   13.6882   22.8865    3.7176 H   0  0  0  0  0  0  0  0  0  0  0  0
   12.6743   22.1554    4.9765 H   0  0  0  0  0  0  0  0  0  0  0  0
   13.4156   24.3462    6.3528 H   0  0  0  0  0  0  0  0  0  0  0  0
   14.7660   24.3407    5.1961 H   0  0  0  0  0  0  0  0  0  0  0  0
   13.0127   25.2074    3.0624 H   0  0  0  0  0  0  0  0  0  0  0  0
   11.1658   22.3083    2.9950 H   0  0  0  0  0  0  0  0  0  0  0  0
   11.7272   23.6646    2.0150 H   0  0  0  0  0  0  0  0  0  0  0  0
   10.1880   25.8146    1.9148 H   0  0  0  0  0  0  0  0  0  0  0  0
    7.8324   26.5201    1.5445 H   0  0  0  0  0  0  0  0  0  0  0  0
    5.9598   24.9630    2.0705 H   0  0  0  0  0  0  0  0  0  0  0  0
    6.4473   22.6888    2.9685 H   0  0  0  0  0  0  0  0  0  0  0  0
    8.7951   21.9650    3.3431 H   0  0  0  0  0  0  0  0  0  0  0  0
   10.4941   26.1253    4.7874 H   0  0  0  0  0  0  0  0  0  0  0  0
    8.6823   24.6035    6.5876 H   0  0  0  0  0  0  0  0  0  0  0  0
    7.2042   25.9795    5.3805 H   0  0  0  0  0  0  0  0  0  0  0  0
    8.7857   27.2611    4.2697 H   0  0  0  0  0  0  0  0  0  0  0  0
    6.5440   26.5488    7.5928 H   0  0  0  0  0  0  0  0  0  0  0  0
    7.0432   28.1824    7.0649 H   0  0  0  0  0  0  0  0  0  0  0  0
    7.9601   28.4548    9.7513 H   0  0  0  0  0  0  0  0  0  0  0  0
   10.0615   28.0985   11.0606 H   0  0  0  0  0  0  0  0  0  0  0  0
   11.8179   26.5443   10.2243 H   0  0  0  0  0  0  0  0  0  0  0  0
   11.5045   25.3209    8.0668 H   0  0  0  0  0  0  0  0  0  0  0  0
   14.7455   23.6570    8.3706 H   0  0  0  0  0  0  0  0  0  0  0  0
   16.2790   23.6635    7.4892 H   0  0  0  0  0  0  0  0  0  0  0  0
   13.8143   21.2572    9.0744 H   0  0  0  0  0  0  0  0  0  0  0  0
   14.4825   19.2013   10.2790 H   0  0  0  0  0  0  0  0  0  0  0  0
   18.6309   19.9789    9.3197 H   0  0  0  0  0  0  0  0  0  0  0  0
   17.9558   22.0341    8.0996 H   0  0  0  0  0  0  0  0  0  0  0  0
   16.5025   22.2087    5.3348 H   0  0  0  0  0  0  0  0  0  0  0  0
   16.9670   20.3477    4.0039 H   0  0  0  0  0  0  0  0  0  0  0  0
   16.3852   18.1850    6.0126 H   0  0  0  0  0  0  0  0  0  0  0  0
   20.1867   17.4400    7.8710 H   0  0  0  0  0  0  0  0  0  0  0  0
   20.2404   19.1754    7.4837 H   0  0  0  0  0  0  0  0  0  0  0  0
   20.6238   17.9570    6.2261 H   0  0  0  0  0  0  0  0  0  0  0  0
   14.2641   19.0208    1.6332 H   0  0  0  0  0  0  0  0  0  0  0  0
   15.3113   20.4205    1.9365 H   0  0  0  0  0  0  0  0  0  0  0  0
   13.9041   20.1170    2.9760 H   0  0  0  0  0  0  0  0  0  0  0  0
   17.3760   17.5226    3.1432 H   0  0  0  0  0  0  0  0  0  0  0  0
   17.3491   18.9194    2.0491 H   0  0  0  0  0  0  0  0  0  0  0  0
   16.3221   17.5102    1.7185 H   0  0  0  0  0  0  0  0  0  0  0  0
  1 48  1  0  0  0  0
  1 52  1  0  0  0  0
  1 53  1  0  0  0  0
  1 54  1  0  0  0  0
  2  3  2  0  0  0  0
  2  7  1  0  0  0  0
  2 55  1  0  0  0  0
  3  4  1  0  0  0  0
  4  5  2  0  0  0  0
  4 37  1  0  0  0  0
  5  6  1  0  0  0  0
  5 56  1  0  0  0  0
  6  7  2  0  0  0  0
  6 57  1  0  0  0  0
  7 58  1  0  0  0  0
  8  9  1  1  0  0  0
  8 11  1  0  0  0  0
  8 12  1  0  0  0  0
  8 19  1  0  0  0  0
  9 10  1  0  0  0  0
  9 59  1  0  0  0  0
  9 60  1  0  0  0  0
 10 32  1  0  0  0  0
 10 61  1  0  0  0  0
 10 62  1  0  0  0  0
 11 63  1  0  0  0  0
 12 13  1  0  0  0  0
 12 64  1  0  0  0  0
 12 65  1  0  0  0  0
 13 14  2  0  0  0  0
 13 18  1  0  0  0  0
 14 15  1  0  0  0  0
 14 66  1  0  0  0  0
 15 16  2  0  0  0  0
 15 67  1  0  0  0  0
 16 17  1  0  0  0  0
 16 68  1  0  0  0  0
 17 18  2  0  0  0  0
 17 69  1  0  0  0  0
 18 70  1  0  0  0  0
 19 20  1  0  0  0  0
 19 31  2  0  0  0  0
 20 21  1  0  0  0  0
 20 71  1  0  0  0  0
 21 22  1  0  0  0  0
 21 30  1  0  0  0  0
 21 72  1  1  0  0  0
 22 23  1  0  0  0  0
 22 24  1  0  0  0  0
 22 73  1  6  0  0  0
 23 74  1  0  0  0  0
 24 25  1  0  0  0  0
 24 75  1  0  0  0  0
 24 76  1  0  0  0  0
 25 26  2  0  0  0  0
 25 30  1  0  0  0  0
 26 27  1  0  0  0  0
 26 77  1  0  0  0  0
 27 28  2  0  0  0  0
 27 78  1  0  0  0  0
 28 29  1  0  0  0  0
 28 79  1  0  0  0  0
 29 30  2  0  0  0  0
 29 80  1  0  0  0  0
 32 33  1  0  0  0  0
 32 40  1  0  0  0  0
 33 34  1  0  0  0  0
 33 81  1  0  0  0  0
 33 82  1  0  0  0  0
 34 35  2  0  0  0  0
 34 39  1  0  0  0  0
 35 36  1  0  0  0  0
 35 83  1  0  0  0  0
 36 37  2  0  0  0  0
 36 84  1  0  0  0  0
 37 38  1  0  0  0  0
 38 39  2  0  0  0  0
 38 85  1  0  0  0  0
 39 86  1  0  0  0  0
 40 41  1  0  0  0  0
 40 87  1  0  0  0  0
 41 42  1  0  0  0  0
 41 51  2  0  0  0  0
 42 43  1  0  0  0  0
 42 48  1  0  0  0  0
 42 88  1  6  0  0  0
 43 44  1  0  0  0  0
 43 89  1  0  0  0  0
 44 45  1  0  0  0  0
 44 47  2  0  0  0  0
 45 46  1  0  0  0  0
 46 90  1  0  0  0  0
 46 91  1  0  0  0  0
 46 92  1  0  0  0  0
 48 49  1  0  0  0  0
 48 50  1  0  0  0  0
 49 93  1  0  0  0  0
 49 94  1  0  0  0  0
 49 95  1  0  0  0  0
 50 96  1  0  0  0  0
 50 97  1  0  0  0  0
 50 98  1  0  0  0  0
M  END
$$$$
