5AH
 OpenBabel04051920053D

 98102  0  0  1  0  0  0  0  0999 V2000
   16.7927   18.1789    2.3343 C   0  0  0  0  0  0  0  0  0  0  0  0
   18.4429   17.3342   12.2212 C   0  0  0  0  0  0  0  0  0  0  0  0
   18.0987   18.4165   11.4771 N   0  0  0  0  0  0  0  0  0  0  0  0
   16.9977   18.3256   10.6784 C   0  0  0  0  0  0  0  0  0  0  0  0
   16.2689   17.1304   10.6057 C   0  0  0  0  0  0  0  0  0  0  0  0
   16.6522   16.0263   11.3681 C   0  0  0  0  0  0  0  0  0  0  0  0
   17.7613   16.1268   12.2030 C   0  0  0  0  0  0  0  0  0  0  0  0
   11.7520   23.8788    4.1709 C   0  0  1  0  0  0  0  0  0  0  0  0
   12.9400   22.9594    4.6262 C   0  0  0  0  0  0  0  0  0  0  0  0
   14.0360   23.6272    5.5115 C   0  0  0  0  0  0  0  0  0  0  0  0
   12.2701   25.1403    3.7318 O   0  0  0  0  0  0  0  0  0  0  0  0
   10.9666   23.1987    2.9918 C   0  0  0  0  0  0  0  0  0  0  0  0
    9.6043   23.7865    2.6299 C   0  0  0  0  0  0  0  0  0  0  0  0
    9.4954   25.0399    2.0142 C   0  0  0  0  0  0  0  0  0  0  0  0
    8.2417   25.5875    1.7078 C   0  0  0  0  0  0  0  0  0  0  0  0
    7.0770   24.8884    2.0066 C   0  0  0  0  0  0  0  0  0  0  0  0
    7.1641   23.6340    2.6066 C   0  0  0  0  0  0  0  0  0  0  0  0
    8.4173   23.0854    2.9142 C   0  0  0  0  0  0  0  0  0  0  0  0
   10.7568   24.0625    5.3466 C   0  0  0  0  0  0  0  0  0  0  0  0
   10.0751   25.2612    5.3787 N   0  0  0  0  0  0  0  0  0  0  0  0
    9.0939   25.5445    6.4122 C   0  0  2  0  0  0  0  0  0  0  0  0
    7.9705   26.5403    5.9857 C   0  0  2  0  0  0  0  0  0  0  0  0
    8.4119   27.4941    5.0044 O   0  0  0  0  0  0  0  0  0  0  0  0
    7.5482   27.3069    7.2581 C   0  0  0  0  0  0  0  0  0  0  0  0
    8.7685   27.1896    8.1263 C   0  0  0  0  0  0  0  0  0  0  0  0
    9.0434   27.8912    9.2938 C   0  0  0  0  0  0  0  0  0  0  0  0
   10.2315   27.6168    9.9768 C   0  0  0  0  0  0  0  0  0  0  0  0
   11.1155   26.6394    9.4992 C   0  0  0  0  0  0  0  0  0  0  0  0
   10.8228   25.9262    8.3333 C   0  0  0  0  0  0  0  0  0  0  0  0
    9.6534   26.2173    7.6409 C   0  0  0  0  0  0  0  0  0  0  0  0
   10.5121   23.1517    6.1445 O   0  0  0  0  0  0  0  0  0  0  0  0
   14.8137   22.6064    6.2485 N   0  0  0  0  0  0  0  0  0  0  0  0
   15.5080   23.0592    7.4761 C   0  0  0  0  0  0  0  0  0  0  0  0
   15.9138   21.8773    8.3631 C   0  0  0  0  0  0  0  0  0  0  0  0
   14.9394   21.1088    9.0145 C   0  0  0  0  0  0  0  0  0  0  0  0
   15.2861   19.9615    9.7596 C   0  0  0  0  0  0  0  0  0  0  0  0
   16.6228   19.5399    9.9026 C   0  0  0  0  0  0  0  0  0  0  0  0
   17.5918   20.3342    9.2604 C   0  0  0  0  0  0  0  0  0  0  0  0
   17.2487   21.4761    8.5016 C   0  0  0  0  0  0  0  0  0  0  0  0
   15.6521   21.8322    5.3902 N   0  0  0  0  0  0  0  0  0  0  0  0
   15.3035   20.4957    5.1688 C   0  0  0  0  0  0  0  0  0  0  0  0
   16.3229   19.6672    4.3411 C   0  0  1  0  0  0  0  0  0  0  0  0
   17.0422   18.8175    5.2899 N   0  0  0  0  0  0  0  0  0  0  0  0
   18.3263   19.0427    5.6550 C   0  0  0  0  0  0  0  0  0  0  0  0
   18.7135   18.1321    6.5802 O   0  0  0  0  0  0  0  0  0  0  0  0
   20.0778   18.2699    6.9854 C   0  0  0  0  0  0  0  0  0  0  0  0
   19.0343   19.9353    5.1947 O   0  0  0  0  0  0  0  0  0  0  0  0
   15.6733   18.8014    3.2032 C   0  0  0  0  0  0  0  0  0  0  0  0
   14.8091   17.6352    3.7282 C   0  0  0  0  0  0  0  0  0  0  0  0
   14.7988   19.6825    2.2911 C   0  0  0  0  0  0  0  0  0  0  0  0
   14.2885   19.9809    5.6344 O   0  0  0  0  0  0  0  0  0  0  0  0
   16.3737   17.5665    1.5265 H   0  0  0  0  0  0  0  0  0  0  0  0
   17.4447   17.5270    2.9265 H   0  0  0  0  0  0  0  0  0  0  0  0
   17.4174   18.9514    1.8734 H   0  0  0  0  0  0  0  0  0  0  0  0
   19.3067   17.4596   12.8663 H   0  0  0  0  0  0  0  0  0  0  0  0
   15.4059   17.0476    9.9494 H   0  0  0  0  0  0  0  0  0  0  0  0
   16.0994   15.0952   11.3170 H   0  0  0  0  0  0  0  0  0  0  0  0
   18.0831   15.2921   12.8127 H   0  0  0  0  0  0  0  0  0  0  0  0
   13.4420   22.5591    3.7344 H   0  0  0  0  0  0  0  0  0  0  0  0
   12.5337   22.0895    5.1600 H   0  0  0  0  0  0  0  0  0  0  0  0
   13.5576   24.3266    6.2056 H   0  0  0  0  0  0  0  0  0  0  0  0
   14.7109   24.2132    4.8729 H   0  0  0  0  0  0  0  0  0  0  0  0
   12.8694   24.9687    2.9844 H   0  0  0  0  0  0  0  0  0  0  0  0
   10.8313   22.1302    3.2106 H   0  0  0  0  0  0  0  0  0  0  0  0
   11.5815   23.2382    2.0809 H   0  0  0  0  0  0  0  0  0  0  0  0
   10.3897   25.6081    1.7665 H   0  0  0  0  0  0  0  0  0  0  0  0
    8.1758   26.5631    1.2315 H   0  0  0  0  0  0  0  0  0  0  0  0
    6.1035   25.3149    1.7675 H   0  0  0  0  0  0  0  0  0  0  0  0
    6.2582   23.0771    2.8315 H   0  0  0  0  0  0  0  0  0  0  0  0
    8.4531   22.1022    3.3819 H   0  0  0  0  0  0  0  0  0  0  0  0
   10.4227   26.0036    4.7839 H   0  0  0  0  0  0  0  0  0  0  0  0
    8.6226   24.6055    6.7294 H   0  0  0  0  0  0  0  0  0  0  0  0
    7.1161   26.0099    5.5488 H   0  0  0  0  0  0  0  0  0  0  0  0
    8.6034   26.9874    4.1967 H   0  0  0  0  0  0  0  0  0  0  0  0
    6.6937   26.8230    7.7439 H   0  0  0  0  0  0  0  0  0  0  0  0
    7.3131   28.3552    7.0472 H   0  0  0  0  0  0  0  0  0  0  0  0
    8.3598   28.6441    9.6734 H   0  0  0  0  0  0  0  0  0  0  0  0
   10.4730   28.1601   10.8877 H   0  0  0  0  0  0  0  0  0  0  0  0
   12.0324   26.4296   10.0459 H   0  0  0  0  0  0  0  0  0  0  0  0
   11.4985   25.1505    7.9869 H   0  0  0  0  0  0  0  0  0  0  0  0
   14.8602   23.7119    8.0807 H   0  0  0  0  0  0  0  0  0  0  0  0
   16.3900   23.6657    7.2277 H   0  0  0  0  0  0  0  0  0  0  0  0
   13.8890   21.3813    8.9162 H   0  0  0  0  0  0  0  0  0  0  0  0
   14.4803   19.4012   10.2286 H   0  0  0  0  0  0  0  0  0  0  0  0
   18.6400   20.0486    9.3291 H   0  0  0  0  0  0  0  0  0  0  0  0
   18.0402   22.0327    8.0052 H   0  0  0  0  0  0  0  0  0  0  0  0
   16.5830   22.1766    5.1648 H   0  0  0  0  0  0  0  0  0  0  0  0
   17.0354   20.3621    3.8776 H   0  0  0  0  0  0  0  0  0  0  0  0
   16.5193   18.1569    5.8503 H   0  0  0  0  0  0  0  0  0  0  0  0
   20.2856   17.5195    7.7541 H   0  0  0  0  0  0  0  0  0  0  0  0
   20.2536   19.2617    7.4150 H   0  0  0  0  0  0  0  0  0  0  0  0
   20.7485   18.0894    6.1388 H   0  0  0  0  0  0  0  0  0  0  0  0
   14.3776   17.0646    2.8966 H   0  0  0  0  0  0  0  0  0  0  0  0
   13.9724   17.9820    4.3390 H   0  0  0  0  0  0  0  0  0  0  0  0
   15.3971   16.9290    4.3237 H   0  0  0  0  0  0  0  0  0  0  0  0
   15.3703   20.5240    1.8845 H   0  0  0  0  0  0  0  0  0  0  0  0
   13.9356   20.0862    2.8301 H   0  0  0  0  0  0  0  0  0  0  0  0
   14.4080   19.1071    1.4433 H   0  0  0  0  0  0  0  0  0  0  0  0
  1 48  1  0  0  0  0
  1 52  1  0  0  0  0
  1 53  1  0  0  0  0
  1 54  1  0  0  0  0
  2  3  2  0  0  0  0
  2  7  1  0  0  0  0
  2 55  1  0  0  0  0
  3  4  1  0  0  0  0
  4  5  2  0  0  0  0
  4 37  1  0  0  0  0
  5  6  1  0  0  0  0
  5 56  1  0  0  0  0
  6  7  2  0  0  0  0
  6 57  1  0  0  0  0
  7 58  1  0  0  0  0
  8  9  1  1  0  0  0
  8 11  1  0  0  0  0
  8 12  1  0  0  0  0
  8 19  1  0  0  0  0
  9 10  1  0  0  0  0
  9 59  1  0  0  0  0
  9 60  1  0  0  0  0
 10 32  1  0  0  0  0
 10 61  1  0  0  0  0
 10 62  1  0  0  0  0
 11 63  1  0  0  0  0
 12 13  1  0  0  0  0
 12 64  1  0  0  0  0
 12 65  1  0  0  0  0
 13 14  2  0  0  0  0
 13 18  1  0  0  0  0
 14 15  1  0  0  0  0
 14 66  1  0  0  0  0
 15 16  2  0  0  0  0
 15 67  1  0  0  0  0
 16 17  1  0  0  0  0
 16 68  1  0  0  0  0
 17 18  2  0  0  0  0
 17 69  1  0  0  0  0
 18 70  1  0  0  0  0
 19 20  1  0  0  0  0
 19 31  2  0  0  0  0
 20 21  1  0  0  0  0
 20 71  1  0  0  0  0
 21 22  1  0  0  0  0
 21 30  1  0  0  0  0
 21 72  1  1  0  0  0
 22 23  1  0  0  0  0
 22 24  1  0  0  0  0
 22 73  1  6  0  0  0
 23 74  1  0  0  0  0
 24 25  1  0  0  0  0
 24 75  1  0  0  0  0
 24 76  1  0  0  0  0
 25 26  2  0  0  0  0
 25 30  1  0  0  0  0
 26 27  1  0  0  0  0
 26 77  1  0  0  0  0
 27 28  2  0  0  0  0
 27 78  1  0  0  0  0
 28 29  1  0  0  0  0
 28 79  1  0  0  0  0
 29 30  2  0  0  0  0
 29 80  1  0  0  0  0
 32 33  1  0  0  0  0
 32 40  1  0  0  0  0
 33 34  1  0  0  0  0
 33 81  1  0  0  0  0
 33 82  1  0  0  0  0
 34 35  2  0  0  0  0
 34 39  1  0  0  0  0
 35 36  1  0  0  0  0
 35 83  1  0  0  0  0
 36 37  2  0  0  0  0
 36 84  1  0  0  0  0
 37 38  1  0  0  0  0
 38 39  2  0  0  0  0
 38 85  1  0  0  0  0
 39 86  1  0  0  0  0
 40 41  1  0  0  0  0
 40 87  1  0  0  0  0
 41 42  1  0  0  0  0
 41 51  2  0  0  0  0
 42 43  1  0  0  0  0
 42 48  1  0  0  0  0
 42 88  1  6  0  0  0
 43 44  1  0  0  0  0
 43 89  1  0  0  0  0
 44 45  1  0  0  0  0
 44 47  2  0  0  0  0
 45 46  1  0  0  0  0
 46 90  1  0  0  0  0
 46 91  1  0  0  0  0
 46 92  1  0  0  0  0
 48 49  1  0  0  0  0
 48 50  1  0  0  0  0
 49 93  1  0  0  0  0
 49 94  1  0  0  0  0
 49 95  1  0  0  0  0
 50 96  1  0  0  0  0
 50 97  1  0  0  0  0
 50 98  1  0  0  0  0
M  END
$$$$
