618
 OpenBabel04051918133D

 70 73  0  0  1  0  0  0  0  0999 V2000
   84.5965   61.2147   12.9172 O   0  0  0  0  0  0  0  0  0  0  0  0
   84.0372   61.0269   13.9958 C   0  0  0  0  0  0  0  0  0  0  0  0
   84.8112   60.4350   15.1971 C   0  0  1  0  0  0  0  0  0  0  0  0
   86.2426   60.0733   14.8350 N   0  3  0  0  0  0  0  0  0  0  0  0
   86.3752   58.9363   13.8768 C   0  0  0  0  0  0  0  0  0  0  0  0
   84.8357   61.3526   16.4101 C   0  0  0  0  0  0  0  0  0  0  0  0
   82.6948   61.2057   14.2151 N   0  0  0  0  0  0  0  0  0  0  0  0
   81.5852   61.0621   13.2500 C   0  0  1  0  0  0  0  0  0  0  0  0
   80.5483   62.1056   13.7210 C   0  0  0  0  0  0  0  0  0  0  0  0
   80.3253   62.1804   14.9396 O   0  0  0  0  0  0  0  0  0  0  0  0
   81.9782   60.9263   11.7896 C   0  0  0  0  0  0  0  0  0  0  0  0
   80.8174   60.6357   10.8446 C   0  0  0  0  0  0  0  0  0  0  0  0
   79.7883   61.7474   10.6483 C   0  0  0  0  0  0  0  0  0  0  0  0
   80.0219   63.0350   11.4291 C   0  0  2  0  0  0  0  0  0  0  0  0
   79.8503   62.9138   12.8720 N   0  0  0  0  0  0  0  0  0  0  0  0
   78.7881   64.2723   10.8780 S   0  0  0  0  0  0  0  0  0  0  0  0
   78.5654   64.9917   12.5308 C   0  0  0  0  0  0  0  0  0  0  0  0
   77.2028   65.6733   12.6732 C   0  0  0  0  0  0  0  0  0  0  0  0
   79.6590   66.0575   12.7186 C   0  0  0  0  0  0  0  0  0  0  0  0
   78.7892   63.7809   13.4473 C   0  0  1  0  0  0  0  0  0  0  0  0
   77.5155   62.9116   13.6589 C   0  0  0  0  0  0  0  0  0  0  0  0
   77.1952   61.9715   12.9549 O   0  0  0  0  0  0  0  0  0  0  0  0
   76.7215   63.2446   14.8129 N   0  0  0  0  0  0  0  0  0  0  0  0
   75.4228   62.7529   15.0081 C   0  0  0  0  0  0  0  0  0  0  0  0
   74.5551   62.2768   14.0548 C   0  0  0  0  0  0  0  0  0  0  0  0
   73.3271   62.0752   14.7253 C   0  0  0  0  0  0  0  0  0  0  0  0
   72.0513   61.5668   14.1563 C   0  0  0  0  0  0  0  0  0  0  0  0
   73.3998   62.4574   16.0043 N   0  0  0  0  0  0  0  0  0  0  0  0
   74.6939   62.7922   16.1968 N   0  3  0  0  0  0  0  0  0  0  0  0
   75.1689   63.1591   17.4766 C   0  0  0  0  0  0  0  0  0  0  0  0
   74.3151   63.8571   18.3401 C   0  0  0  0  0  0  0  0  0  0  0  0
   74.7776   64.2538   19.5944 C   0  0  0  0  0  0  0  0  0  0  0  0
   76.0681   63.9167   20.0029 C   0  0  0  0  0  0  0  0  0  0  0  0
   76.9060   63.1901   19.1563 C   0  0  0  0  0  0  0  0  0  0  0  0
   76.4649   62.8180   17.8854 C   0  0  0  0  0  0  0  0  0  0  0  0
   84.3252   59.4903   15.4683 H   0  0  0  0  0  0  0  0  0  0  0  0
   86.6798   60.8990   14.4003 H   0  0  0  0  0  0  0  0  0  0  0  0
   87.4424   58.7708   13.7147 H   0  0  0  0  0  0  0  0  0  0  0  0
   85.8921   59.1950   12.9338 H   0  0  0  0  0  0  0  0  0  0  0  0
   85.9137   58.0541   14.3258 H   0  0  0  0  0  0  0  0  0  0  0  0
   83.8240   61.6368   16.7161 H   0  0  0  0  0  0  0  0  0  0  0  0
   85.3912   62.2745   16.2105 H   0  0  0  0  0  0  0  0  0  0  0  0
   85.2995   60.8486   17.2654 H   0  0  0  0  0  0  0  0  0  0  0  0
   82.3744   61.4330   15.1536 H   0  0  0  0  0  0  0  0  0  0  0  0
   81.1347   60.0988   13.5370 H   0  0  0  0  0  0  0  0  0  0  0  0
   82.6567   60.0661   11.7053 H   0  0  0  0  0  0  0  0  0  0  0  0
   82.5450   61.7974   11.4430 H   0  0  0  0  0  0  0  0  0  0  0  0
   80.2983   59.7203   11.1597 H   0  0  0  0  0  0  0  0  0  0  0  0
   81.2450   60.3947    9.8618 H   0  0  0  0  0  0  0  0  0  0  0  0
   78.7963   61.3370   10.8727 H   0  0  0  0  0  0  0  0  0  0  0  0
   79.7785   61.9807    9.5735 H   0  0  0  0  0  0  0  0  0  0  0  0
   81.0166   63.4495   11.2342 H   0  0  0  0  0  0  0  0  0  0  0  0
   77.1093   66.1370   13.6632 H   0  0  0  0  0  0  0  0  0  0  0  0
   76.3616   64.9850   12.5504 H   0  0  0  0  0  0  0  0  0  0  0  0
   77.0800   66.4731   11.9332 H   0  0  0  0  0  0  0  0  0  0  0  0
   79.5715   66.5332   13.7018 H   0  0  0  0  0  0  0  0  0  0  0  0
   79.5688   66.8536   11.9688 H   0  0  0  0  0  0  0  0  0  0  0  0
   80.6733   65.6463   12.6485 H   0  0  0  0  0  0  0  0  0  0  0  0
   79.1051   64.1191   14.4460 H   0  0  0  0  0  0  0  0  0  0  0  0
   77.0967   63.8520   15.5343 H   0  0  0  0  0  0  0  0  0  0  0  0
   74.7320   62.1391   12.9966 H   0  0  0  0  0  0  0  0  0  0  0  0
   71.2806   61.4445   14.9255 H   0  0  0  0  0  0  0  0  0  0  0  0
   72.2081   60.5923   13.6817 H   0  0  0  0  0  0  0  0  0  0  0  0
   71.6713   62.2607   13.4006 H   0  0  0  0  0  0  0  0  0  0  0  0
   73.3044   64.1261   18.0363 H   0  0  0  0  0  0  0  0  0  0  0  0
   74.1260   64.8185   20.2582 H   0  0  0  0  0  0  0  0  0  0  0  0
   76.4106   64.2039   20.9949 H   0  0  0  0  0  0  0  0  0  0  0  0
   77.8926   62.8927   19.5046 H   0  0  0  0  0  0  0  0  0  0  0  0
   77.1155   62.1978   17.2738 H   0  0  0  0  0  0  0  0  0  0  0  0
   86.7824   59.8546   15.6826 H   0  0  0  0  0  0  0  0  0  0  0  0
  1  2  2  0  0  0  0
  2  3  1  0  0  0  0
  2  7  1  0  0  0  0
  3  4  1  0  0  0  0
  3  6  1  0  0  0  0
  3 36  1  1  0  0  0
  4  5  1  0  0  0  0
  4 37  1  0  0  0  0
  4 70  1  0  0  0  0
  5 38  1  0  0  0  0
  5 39  1  0  0  0  0
  5 40  1  0  0  0  0
  6 41  1  0  0  0  0
  6 42  1  0  0  0  0
  6 43  1  0  0  0  0
  7  8  1  0  0  0  0
  7 44  1  0  0  0  0
  8  9  1  0  0  0  0
  8 11  1  0  0  0  0
  8 45  1  1  0  0  0
  9 10  2  0  0  0  0
  9 15  1  0  0  0  0
 11 12  1  0  0  0  0
 11 46  1  0  0  0  0
 11 47  1  0  0  0  0
 12 13  1  0  0  0  0
 12 48  1  0  0  0  0
 12 49  1  0  0  0  0
 13 14  1  0  0  0  0
 13 50  1  0  0  0  0
 13 51  1  0  0  0  0
 14 15  1  0  0  0  0
 14 16  1  0  0  0  0
 14 52  1  6  0  0  0
 15 20  1  0  0  0  0
 16 17  1  0  0  0  0
 17 18  1  0  0  0  0
 17 19  1  0  0  0  0
 17 20  1  0  0  0  0
 18 53  1  0  0  0  0
 18 54  1  0  0  0  0
 18 55  1  0  0  0  0
 19 56  1  0  0  0  0
 19 57  1  0  0  0  0
 19 58  1  0  0  0  0
 20 21  1  0  0  0  0
 20 59  1  1  0  0  0
 21 22  2  0  0  0  0
 21 23  1  0  0  0  0
 23 24  1  0  0  0  0
 23 60  1  0  0  0  0
 24 25  1  0  0  0  0
 24 29  2  0  0  0  0
 25 26  2  0  0  0  0
 25 61  1  0  0  0  0
 26 27  1  0  0  0  0
 26 28  1  0  0  0  0
 27 62  1  0  0  0  0
 27 63  1  0  0  0  0
 27 64  1  0  0  0  0
 28 29  1  0  0  0  0
 29 30  1  0  0  0  0
 30 31  2  0  0  0  0
 30 35  1  0  0  0  0
 31 32  1  0  0  0  0
 31 65  1  0  0  0  0
 32 33  2  0  0  0  0
 32 66  1  0  0  0  0
 33 34  1  0  0  0  0
 33 67  1  0  0  0  0
 34 35  2  0  0  0  0
 34 68  1  0  0  0  0
 35 69  1  0  0  0  0
M  CHG  2   4   1  29   1
M  END
$$$$
