627
 OpenBabel04051919353D

 66 70  0  0  1  0  0  0  0  0999 V2000
  -41.5356  -46.3755  -10.5400 N   0  0  0  0  0  0  0  0  0  0  0  0
  -38.9879  -47.7475  -12.6155 N   0  3  0  0  0  0  0  0  0  0  0  0
  -40.4337  -49.3076  -12.4061 C   0  0  0  0  0  0  0  0  0  0  0  0
  -39.2082  -49.0591  -12.8906 N   0  0  0  0  0  0  0  0  0  0  0  0
  -40.9578  -50.5656  -12.5252 N   0  0  0  0  0  0  0  0  0  0  0  0
  -42.2772  -50.8738  -12.3254 C   0  0  0  0  0  0  0  0  0  0  0  0
  -42.6396  -52.2927  -12.5154 C   0  0  0  0  0  0  0  0  0  0  0  0
  -43.1749  -50.1014  -12.0060 O   0  0  0  0  0  0  0  0  0  0  0  0
  -43.8320  -52.7318  -11.9469 C   0  0  0  0  0  0  0  0  0  0  0  0
  -44.2353  -54.0280  -12.1250 C   0  0  0  0  0  0  0  0  0  0  0  0
  -42.2743  -54.4650  -13.4381 C   0  0  0  0  0  0  0  0  0  0  0  0
  -41.8526  -53.1556  -13.2936 C   0  0  0  0  0  0  0  0  0  0  0  0
  -40.0128  -47.2200  -11.9265 C   0  0  0  0  0  0  0  0  0  0  0  0
  -40.9586  -48.1835  -11.7807 C   0  0  0  0  0  0  0  0  0  0  0  0
  -42.0627  -47.7236  -10.9376 C   0  0  0  0  0  0  0  0  0  0  0  0
  -40.3006  -45.9651  -11.2457 C   0  0  0  0  0  0  0  0  0  0  0  0
  -43.8962  -56.2078  -13.0821 N   0  0  0  0  0  0  0  0  0  0  0  0
  -44.9426  -56.7437  -12.2444 C   0  0  0  0  0  0  0  0  0  0  0  0
  -44.6108  -58.0803  -11.6204 C   0  0  0  0  0  0  0  0  0  0  0  0
  -43.5754  -58.9322  -12.3122 N   0  3  1  0  0  0  0  0  0  0  0  0
  -42.5883  -58.2081  -13.2233 C   0  0  0  0  0  0  0  0  0  0  0  0
  -43.2853  -57.1225  -14.0338 C   0  0  0  0  0  0  0  0  0  0  0  0
  -42.8264  -59.6925  -11.2612 C   0  0  0  0  0  0  0  0  0  0  0  0
  -43.4753  -54.9175  -12.8748 C   0  0  0  0  0  0  0  0  0  0  0  0
  -42.0542  -45.5418   -9.5698 C   0  0  0  0  0  0  0  0  0  0  0  0
  -41.5084  -44.4647   -9.3087 O   0  0  0  0  0  0  0  0  0  0  0  0
  -43.5330  -48.3066   -7.6850 C   0  0  0  0  0  0  0  0  0  0  0  0
  -43.1085  -49.2752   -6.7807 C   0  0  0  0  0  0  0  0  0  0  0  0
  -42.8586  -47.0788   -7.7682 C   0  0  0  0  0  0  0  0  0  0  0  0
  -42.0179  -49.0179   -5.9522 C   0  0  0  0  0  0  0  0  0  0  0  0
  -41.7663  -46.8292   -6.9226 C   0  0  0  0  0  0  0  0  0  0  0  0
  -43.2953  -46.0449   -8.7926 C   0  0  1  0  0  0  0  0  0  0  0  0
  -41.3423  -47.8014   -6.0237 C   0  0  0  0  0  0  0  0  0  0  0  0
  -45.1463  -45.2242   -7.5245 C   0  0  0  0  0  0  0  0  0  0  0  0
  -43.9231  -44.9220   -8.1691 O   0  0  0  0  0  0  0  0  0  0  0  0
  -38.1200  -47.3175  -12.9162 H   0  0  0  0  0  0  0  0  0  0  0  0
  -40.2899  -51.2451  -12.8453 H   0  0  0  0  0  0  0  0  0  0  0  0
  -44.4249  -52.0534  -11.3579 H   0  0  0  0  0  0  0  0  0  0  0  0
  -45.1915  -54.2777  -11.6571 H   0  0  0  0  0  0  0  0  0  0  0  0
  -41.6134  -55.1124  -14.0100 H   0  0  0  0  0  0  0  0  0  0  0  0
  -40.9479  -52.8521  -13.8079 H   0  0  0  0  0  0  0  0  0  0  0  0
  -42.9979  -47.5761  -11.4803 H   0  0  0  0  0  0  0  0  0  0  0  0
  -42.2164  -48.3529  -10.0585 H   0  0  0  0  0  0  0  0  0  0  0  0
  -39.5402  -45.6487  -10.5267 H   0  0  0  0  0  0  0  0  0  0  0  0
  -40.5526  -45.1577  -11.9357 H   0  0  0  0  0  0  0  0  0  0  0  0
  -45.8596  -56.7988  -12.8318 H   0  0  0  0  0  0  0  0  0  0  0  0
  -45.1285  -56.1336  -11.3569 H   0  0  0  0  0  0  0  0  0  0  0  0
  -45.5349  -58.6615  -11.5934 H   0  0  0  0  0  0  0  0  0  0  0  0
  -44.2572  -57.8952  -10.5991 H   0  0  0  0  0  0  0  0  0  0  0  0
  -42.1434  -58.9631  -13.8762 H   0  0  0  0  0  0  0  0  0  0  0  0
  -41.8193  -57.7631  -12.5801 H   0  0  0  0  0  0  0  0  0  0  0  0
  -42.5674  -56.6465  -14.7035 H   0  0  0  0  0  0  0  0  0  0  0  0
  -44.0609  -57.5410  -14.6843 H   0  0  0  0  0  0  0  0  0  0  0  0
  -43.5603  -60.1864  -10.6203 H   0  0  0  0  0  0  0  0  0  0  0  0
  -42.2399  -58.9696  -10.6803 H   0  0  0  0  0  0  0  0  0  0  0  0
  -42.1848  -60.4124  -11.7631 H   0  0  0  0  0  0  0  0  0  0  0  0
  -44.3784  -48.5151   -8.3372 H   0  0  0  0  0  0  0  0  0  0  0  0
  -43.6236  -50.2301   -6.7267 H   0  0  0  0  0  0  0  0  0  0  0  0
  -41.6831  -49.7738   -5.2533 H   0  0  0  0  0  0  0  0  0  0  0  0
  -41.2345  -45.8788   -6.9731 H   0  0  0  0  0  0  0  0  0  0  0  0
  -43.9945  -46.4835   -9.5166 H   0  0  0  0  0  0  0  0  0  0  0  0
  -40.4845  -47.6064   -5.3842 H   0  0  0  0  0  0  0  0  0  0  0  0
  -45.5526  -44.2955   -7.1157 H   0  0  0  0  0  0  0  0  0  0  0  0
  -44.9828  -45.9133   -6.6926 H   0  0  0  0  0  0  0  0  0  0  0  0
  -45.8659  -45.6434   -8.2329 H   0  0  0  0  0  0  0  0  0  0  0  0
  -44.0971  -59.5886  -12.9053 H   0  0  0  0  0  0  0  0  0  0  0  0
  1 15  1  0  0  0  0
  1 16  1  0  0  0  0
  1 25  1  0  0  0  0
  2  4  1  0  0  0  0
  2 13  2  0  0  0  0
  2 36  1  0  0  0  0
  3  4  1  0  0  0  0
  3  5  1  0  0  0  0
  3 14  2  0  0  0  0
  5  6  1  0  0  0  0
  5 37  1  0  0  0  0
  6  7  1  0  0  0  0
  6  8  2  0  0  0  0
  7  9  2  0  0  0  0
  7 12  1  0  0  0  0
  9 10  1  0  0  0  0
  9 38  1  0  0  0  0
 10 24  2  0  0  0  0
 10 39  1  0  0  0  0
 11 12  2  0  0  0  0
 11 24  1  0  0  0  0
 11 40  1  0  0  0  0
 12 41  1  0  0  0  0
 13 14  1  0  0  0  0
 13 16  1  0  0  0  0
 14 15  1  0  0  0  0
 15 42  1  0  0  0  0
 15 43  1  0  0  0  0
 16 44  1  0  0  0  0
 16 45  1  0  0  0  0
 17 18  1  0  0  0  0
 17 22  1  0  0  0  0
 17 24  1  0  0  0  0
 18 19  1  0  0  0  0
 18 46  1  0  0  0  0
 18 47  1  0  0  0  0
 19 20  1  0  0  0  0
 19 48  1  0  0  0  0
 19 49  1  0  0  0  0
 20 21  1  0  0  0  0
 20 23  1  0  0  0  0
 20 66  1  6  0  0  0
 21 22  1  0  0  0  0
 21 50  1  0  0  0  0
 21 51  1  0  0  0  0
 22 52  1  0  0  0  0
 22 53  1  0  0  0  0
 23 54  1  0  0  0  0
 23 55  1  0  0  0  0
 23 56  1  0  0  0  0
 25 26  2  0  0  0  0
 25 32  1  0  0  0  0
 27 28  2  0  0  0  0
 27 29  1  0  0  0  0
 27 57  1  0  0  0  0
 28 30  1  0  0  0  0
 28 58  1  0  0  0  0
 29 31  2  0  0  0  0
 29 32  1  0  0  0  0
 30 33  2  0  0  0  0
 30 59  1  0  0  0  0
 31 33  1  0  0  0  0
 31 60  1  0  0  0  0
 32 35  1  0  0  0  0
 32 61  1  6  0  0  0
 33 62  1  0  0  0  0
 34 35  1  0  0  0  0
 34 63  1  0  0  0  0
 34 64  1  0  0  0  0
 34 65  1  0  0  0  0
M  CHG  2   2   1  20   1
M  END
$$$$
