672
 OpenBabel04051918043D

105108  0  0  1  0  0  0  0  0999 V2000
   13.3327   67.7021   27.4147 C   0  0  0  0  0  0  0  0  0  0  0  0
   13.5353   69.2215   27.4775 C   0  0  0  0  0  0  0  0  0  0  0  0
   14.6263   66.8989   27.5460 C   0  0  0  0  0  0  0  0  0  0  0  0
   14.6190   65.6629   28.1954 C   0  0  0  0  0  0  0  0  0  0  0  0
   15.7830   64.8610   28.3478 C   0  0  0  0  0  0  0  0  0  0  0  0
   15.6345   63.5439   29.1140 C   0  0  0  0  0  0  0  0  0  0  0  0
   14.3843   62.7368   28.7349 C   0  0  0  0  0  0  0  0  0  0  0  0
   15.6555   63.7998   30.6242 C   0  0  0  0  0  0  0  0  0  0  0  0
   17.0249   65.3481   27.8255 C   0  0  0  0  0  0  0  0  0  0  0  0
   18.5482   64.3413   28.0641 S   0  0  0  0  0  0  0  0  0  0  0  0
   18.3819   63.0633   27.0041 N   0  0  0  0  0  0  0  0  0  0  0  0
   18.0254   63.3167   25.6087 C   0  0  1  0  0  0  0  0  0  0  0  0
   19.0747   62.7271   24.6603 C   0  0  0  0  0  0  0  0  0  0  0  0
   18.9317   61.2570   24.3391 C   0  0  0  0  0  0  0  0  0  0  0  0
   19.5624   60.2869   25.1407 C   0  0  0  0  0  0  0  0  0  0  0  0
   19.4332   58.9105   24.8983 C   0  0  0  0  0  0  0  0  0  0  0  0
   20.1224   57.9017   25.7469 C   0  0  0  0  0  0  0  0  0  0  0  0
   20.0889   56.6253   25.4407 N   0  0  0  0  0  0  0  0  0  0  0  0
   20.7964   58.2716   26.8184 N   0  0  0  0  0  0  0  0  0  0  0  0
   18.6235   58.5220   23.8113 C   0  0  0  0  0  0  0  0  0  0  0  0
   17.9967   59.4685   23.0018 C   0  0  0  0  0  0  0  0  0  0  0  0
   18.1493   60.8281   23.2628 C   0  0  0  0  0  0  0  0  0  0  0  0
   16.6109   62.7737   25.3631 C   0  0  0  0  0  0  0  0  0  0  0  0
   15.8031   63.4078   24.4260 N   0  0  0  0  0  0  0  0  0  0  0  0
   16.1814   64.5799   23.6405 C   0  0  0  0  0  0  0  0  0  0  0  0
   15.0881   65.6454   23.5039 C   0  0  0  0  0  0  0  0  0  0  0  0
   13.7194   65.1288   23.4818 N   0  0  0  0  0  0  0  0  0  0  0  0
   12.6741   65.7332   22.8389 C   0  0  0  0  0  0  0  0  0  0  0  0
   12.9536   66.9781   21.9968 C   0  0  0  0  0  0  0  0  0  0  0  0
   13.0806   66.5378   20.5332 C   0  0  0  0  0  0  0  0  0  0  0  0
   13.2172   67.7405   19.6131 C   0  0  0  0  0  0  0  0  0  0  0  0
   12.0889   68.6824   19.8434 N   0  0  0  0  0  0  0  0  0  0  0  0
   11.1654   68.9891   18.8812 C   0  0  0  0  0  0  0  0  0  0  0  0
   11.3258   68.6095   17.6005 N   0  0  0  0  0  0  0  0  0  0  0  0
   10.0414   69.6740   19.1613 N   0  0  0  0  0  0  0  0  0  0  0  0
   11.9895   69.1736   21.2424 C   0  0  0  0  0  0  0  0  0  0  0  0
   11.8318   68.0025   22.1955 C   0  0  0  0  0  0  0  0  0  0  0  0
   11.5282   65.2685   22.8431 O   0  0  0  0  0  0  0  0  0  0  0  0
   13.4200   63.9974   24.3755 C   0  0  0  0  0  0  0  0  0  0  0  0
   14.4483   62.8869   24.1992 C   0  0  0  0  0  0  0  0  0  0  0  0
   16.2225   61.7835   25.9817 O   0  0  0  0  0  0  0  0  0  0  0  0
   18.5460   63.7640   29.3770 O   0  0  0  0  0  0  0  0  0  0  0  0
   19.7153   65.0392   27.6126 O   0  0  0  0  0  0  0  0  0  0  0  0
   17.0572   66.5971   27.1497 C   0  0  0  0  0  0  0  0  0  0  0  0
   18.3010   67.2562   26.5381 C   0  0  0  0  0  0  0  0  0  0  0  0
   18.8474   68.3718   27.4312 C   0  0  0  0  0  0  0  0  0  0  0  0
   18.0900   67.7880   25.1138 C   0  0  0  0  0  0  0  0  0  0  0  0
   15.8413   67.3381   27.0302 C   0  0  0  0  0  0  0  0  0  0  0  0
   12.5906   67.3555   26.1212 C   0  0  0  0  0  0  0  0  0  0  0  0
   12.6753   67.4388   28.2555 H   0  0  0  0  0  0  0  0  0  0  0  0
   12.5770   69.7486   27.4043 H   0  0  0  0  0  0  0  0  0  0  0  0
   14.1561   69.5840   26.6515 H   0  0  0  0  0  0  0  0  0  0  0  0
   14.0120   69.5135   28.4183 H   0  0  0  0  0  0  0  0  0  0  0  0
   13.6749   65.3271   28.6205 H   0  0  0  0  0  0  0  0  0  0  0  0
   16.4582   62.8745   28.8649 H   0  0  0  0  0  0  0  0  0  0  0  0
   14.3683   61.7845   29.2758 H   0  0  0  0  0  0  0  0  0  0  0  0
   14.3729   62.5147   27.6639 H   0  0  0  0  0  0  0  0  0  0  0  0
   13.4542   63.2568   28.9785 H   0  0  0  0  0  0  0  0  0  0  0  0
   16.5416   64.3676   30.9271 H   0  0  0  0  0  0  0  0  0  0  0  0
   15.6636   62.8529   31.1748 H   0  0  0  0  0  0  0  0  0  0  0  0
   14.7770   64.3689   30.9470 H   0  0  0  0  0  0  0  0  0  0  0  0
   18.2189   62.1353   27.4081 H   0  0  0  0  0  0  0  0  0  0  0  0
   18.0538   64.3957   25.4837 H   0  0  0  0  0  0  0  0  0  0  0  0
   20.0748   62.8992   25.0816 H   0  0  0  0  0  0  0  0  0  0  0  0
   19.0618   63.2838   23.7142 H   0  0  0  0  0  0  0  0  0  0  0  0
   20.1711   60.6682   25.9633 H   0  0  0  0  0  0  0  0  0  0  0  0
   20.5600   55.9124   26.0035 H   0  0  0  0  0  0  0  0  0  0  0  0
   20.8492   59.2369   27.1183 H   0  0  0  0  0  0  0  0  0  0  0  0
   21.2845   57.6161   27.4087 H   0  0  0  0  0  0  0  0  0  0  0  0
   18.4517   57.4815   23.5551 H   0  0  0  0  0  0  0  0  0  0  0  0
   17.3764   59.1426   22.1669 H   0  0  0  0  0  0  0  0  0  0  0  0
   17.6448   61.5442   22.6206 H   0  0  0  0  0  0  0  0  0  0  0  0
   16.4933   64.2356   22.6499 H   0  0  0  0  0  0  0  0  0  0  0  0
   17.0494   65.0731   24.0639 H   0  0  0  0  0  0  0  0  0  0  0  0
   15.3029   66.1742   22.5727 H   0  0  0  0  0  0  0  0  0  0  0  0
   15.1612   66.3853   24.3092 H   0  0  0  0  0  0  0  0  0  0  0  0
   13.8742   67.4784   22.3053 H   0  0  0  0  0  0  0  0  0  0  0  0
   12.1893   65.9670   20.2378 H   0  0  0  0  0  0  0  0  0  0  0  0
   13.9353   65.8633   20.4009 H   0  0  0  0  0  0  0  0  0  0  0  0
   13.2444   67.3829   18.5833 H   0  0  0  0  0  0  0  0  0  0  0  0
   14.1581   68.2731   19.7929 H   0  0  0  0  0  0  0  0  0  0  0  0
   10.6367   68.8297   16.8949 H   0  0  0  0  0  0  0  0  0  0  0  0
    9.7952   69.9659   20.0958 H   0  0  0  0  0  0  0  0  0  0  0  0
    9.3519   69.8708   18.4486 H   0  0  0  0  0  0  0  0  0  0  0  0
   11.1518   69.8591   21.3738 H   0  0  0  0  0  0  0  0  0  0  0  0
   12.8943   69.7519   21.4654 H   0  0  0  0  0  0  0  0  0  0  0  0
   11.8410   68.3637   23.2306 H   0  0  0  0  0  0  0  0  0  0  0  0
   10.8529   67.5383   22.0304 H   0  0  0  0  0  0  0  0  0  0  0  0
   12.4190   63.5995   24.1785 H   0  0  0  0  0  0  0  0  0  0  0  0
   13.4272   64.3519   25.4141 H   0  0  0  0  0  0  0  0  0  0  0  0
   14.2148   62.0697   24.8850 H   0  0  0  0  0  0  0  0  0  0  0  0
   14.3958   62.4875   23.1786 H   0  0  0  0  0  0  0  0  0  0  0  0
   19.0852   66.5282   26.3845 H   0  0  0  0  0  0  0  0  0  0  0  0
   19.7676   68.7866   27.0035 H   0  0  0  0  0  0  0  0  0  0  0  0
   19.0817   68.0044   28.4356 H   0  0  0  0  0  0  0  0  0  0  0  0
   18.1297   69.1937   27.5292 H   0  0  0  0  0  0  0  0  0  0  0  0
   17.7269   66.9975   24.4570 H   0  0  0  0  0  0  0  0  0  0  0  0
   19.0407   68.1409   24.6987 H   0  0  0  0  0  0  0  0  0  0  0  0
   17.3828   68.6188   25.0703 H   0  0  0  0  0  0  0  0  0  0  0  0
   15.8737   68.3088   26.5462 H   0  0  0  0  0  0  0  0  0  0  0  0
   12.3752   66.2857   26.0585 H   0  0  0  0  0  0  0  0  0  0  0  0
   13.1785   67.6413   25.2431 H   0  0  0  0  0  0  0  0  0  0  0  0
   11.6310   67.8834   26.0635 H   0  0  0  0  0  0  0  0  0  0  0  0
   19.6000   56.2721   24.6288 H   0  0  0  0  0  0  0  0  0  0  0  0
   12.1540   68.1357   17.2734 H   0  0  0  0  0  0  0  0  0  0  0  0
  1  2  1  0  0  0  0
  1  3  1  0  0  0  0
  1 49  1  0  0  0  0
  1 50  1  0  0  0  0
  2 51  1  0  0  0  0
  2 52  1  0  0  0  0
  2 53  1  0  0  0  0
  3  4  2  0  0  0  0
  3 48  1  0  0  0  0
  4  5  1  0  0  0  0
  4 54  1  0  0  0  0
  5  6  1  0  0  0  0
  5  9  2  0  0  0  0
  6  7  1  0  0  0  0
  6  8  1  0  0  0  0
  6 55  1  0  0  0  0
  7 56  1  0  0  0  0
  7 57  1  0  0  0  0
  7 58  1  0  0  0  0
  8 59  1  0  0  0  0
  8 60  1  0  0  0  0
  8 61  1  0  0  0  0
  9 10  1  0  0  0  0
  9 44  1  0  0  0  0
 10 11  1  0  0  0  0
 10 42  2  0  0  0  0
 10 43  2  0  0  0  0
 11 12  1  0  0  0  0
 11 62  1  0  0  0  0
 12 13  1  0  0  0  0
 12 23  1  0  0  0  0
 12 63  1  6  0  0  0
 13 14  1  0  0  0  0
 13 64  1  0  0  0  0
 13 65  1  0  0  0  0
 14 15  2  0  0  0  0
 14 22  1  0  0  0  0
 15 16  1  0  0  0  0
 15 66  1  0  0  0  0
 16 17  1  0  0  0  0
 16 20  2  0  0  0  0
 17 18  2  0  0  0  0
 17 19  1  0  0  0  0
 18 67  1  0  0  0  0
 18104  1  0  0  0  0
 19 68  1  0  0  0  0
 19 69  1  0  0  0  0
 20 21  1  0  0  0  0
 20 70  1  0  0  0  0
 21 22  2  0  0  0  0
 21 71  1  0  0  0  0
 22 72  1  0  0  0  0
 23 24  1  0  0  0  0
 23 41  2  0  0  0  0
 24 25  1  0  0  0  0
 24 40  1  0  0  0  0
 25 26  1  0  0  0  0
 25 73  1  0  0  0  0
 25 74  1  0  0  0  0
 26 27  1  0  0  0  0
 26 75  1  0  0  0  0
 26 76  1  0  0  0  0
 27 28  1  0  0  0  0
 27 39  1  0  0  0  0
 28 29  1  0  0  0  0
 28 38  2  0  0  0  0
 29 30  1  0  0  0  0
 29 37  1  0  0  0  0
 29 77  1  0  0  0  0
 30 31  1  0  0  0  0
 30 78  1  0  0  0  0
 30 79  1  0  0  0  0
 31 32  1  0  0  0  0
 31 80  1  0  0  0  0
 31 81  1  0  0  0  0
 32 33  1  0  0  0  0
 32 36  1  0  0  0  0
 33 34  2  0  0  0  0
 33 35  1  0  0  0  0
 34 82  1  0  0  0  0
 34105  1  0  0  0  0
 35 83  1  0  0  0  0
 35 84  1  0  0  0  0
 36 37  1  0  0  0  0
 36 85  1  0  0  0  0
 36 86  1  0  0  0  0
 37 87  1  0  0  0  0
 37 88  1  0  0  0  0
 39 40  1  0  0  0  0
 39 89  1  0  0  0  0
 39 90  1  0  0  0  0
 40 91  1  0  0  0  0
 40 92  1  0  0  0  0
 44 45  1  0  0  0  0
 44 48  2  0  0  0  0
 45 46  1  0  0  0  0
 45 47  1  0  0  0  0
 45 93  1  0  0  0  0
 46 94  1  0  0  0  0
 46 95  1  0  0  0  0
 46 96  1  0  0  0  0
 47 97  1  0  0  0  0
 47 98  1  0  0  0  0
 47 99  1  0  0  0  0
 48100  1  0  0  0  0
 49101  1  0  0  0  0
 49102  1  0  0  0  0
 49103  1  0  0  0  0
M  END
$$$$
