6C
 OpenBabel04051921093D

 33 34  0  0  1  0  0  0  0  0999 V2000
   24.5893  -17.0618    7.6386 O   0  0  0  0  0  0  0  0  0  0  0  0
   24.5105  -16.0040    8.7308 P   0  0  0  0  0  0  0  0  0  0  0  0
   25.8235  -15.2838    9.0031 O   0  0  0  0  0  0  0  0  0  0  0  0
   23.2984  -15.0859    8.6274 O   0  0  0  0  0  0  0  0  0  0  0  0
   24.1781  -16.8326   10.0945 O   0  0  0  0  0  0  0  0  0  0  0  0
   25.1837  -17.4674   10.8449 C   0  0  0  0  0  0  0  0  0  0  0  0
   24.4728  -18.1554   12.0093 C   0  0  2  0  0  0  0  0  0  0  0  0
   23.9302  -17.1780   13.0458 C   0  0  1  0  0  0  0  0  0  0  0  0
   22.7998  -17.8360   13.6886 O   0  0  0  0  0  0  0  0  0  0  0  0
   25.0788  -17.0739   14.0298 C   0  0  1  0  0  0  0  0  0  0  0  0
   24.5779  -16.7106   15.3282 O   0  0  0  0  0  0  0  0  0  0  0  0
   25.3803  -19.0575   12.7151 O   0  0  0  0  0  0  0  0  0  0  0  0
   25.6444  -18.5042   14.0040 C   0  0  1  0  0  0  0  0  0  0  0  0
   27.0802  -18.6410   14.3119 N   0  3  0  0  0  0  0  0  0  0  0  0
   27.5510  -19.6372   15.1467 C   0  0  0  0  0  0  0  0  0  0  0  0
   28.8197  -19.6789   15.5497 C   0  0  0  0  0  0  0  0  0  0  0  0
   29.8006  -18.8565   14.8195 C   0  0  0  0  0  0  0  0  0  0  0  0
   31.0031  -18.9623   15.0469 O   0  0  0  0  0  0  0  0  0  0  0  0
   29.2969  -18.0370   13.8795 N   0  3  0  0  0  0  0  0  0  0  0  0
   27.9645  -17.9194   13.5966 C   0  0  0  0  0  0  0  0  0  0  0  0
   27.6803  -17.1047   12.7152 O   0  0  0  0  0  0  0  0  0  0  0  0
   26.7827  -20.8006   15.3386 C   0  0  0  0  0  0  0  0  0  0  0  0
   26.2513  -21.8433   15.4116 N   0  0  0  0  0  0  0  0  0  0  0  0
   25.8986  -16.7347   11.2169 H   0  0  0  0  0  0  0  0  0  0  0  0
   25.7171  -18.2142   10.2550 H   0  0  0  0  0  0  0  0  0  0  0  0
   23.6308  -18.7488   11.6259 H   0  0  0  0  0  0  0  0  0  0  0  0
   23.6151  -16.2113   12.6360 H   0  0  0  0  0  0  0  0  0  0  0  0
   22.4429  -17.2242   14.3543 H   0  0  0  0  0  0  0  0  0  0  0  0
   25.8213  -16.3363   13.7126 H   0  0  0  0  0  0  0  0  0  0  0  0
   25.3330  -16.6681   15.9306 H   0  0  0  0  0  0  0  0  0  0  0  0
   25.1013  -19.0846   14.7575 H   0  0  0  0  0  0  0  0  0  0  0  0
   29.2093  -20.4231   16.2229 H   0  0  0  0  0  0  0  0  0  0  0  0
   29.9585  -17.4963   13.3373 H   0  0  0  0  0  0  0  0  0  0  0  0
  1  2  2  0  0  0  0
  2  3  1  0  0  0  0
  2  4  1  0  0  0  0
  2  5  1  0  0  0  0
  5  6  1  0  0  0  0
  6  7  1  0  0  0  0
  6 24  1  0  0  0  0
  6 25  1  0  0  0  0
  7  8  1  0  0  0  0
  7 12  1  0  0  0  0
  7 26  1  6  0  0  0
  8  9  1  0  0  0  0
  8 10  1  0  0  0  0
  8 27  1  6  0  0  0
  9 28  1  0  0  0  0
 10 11  1  0  0  0  0
 10 13  1  0  0  0  0
 10 29  1  6  0  0  0
 11 30  1  0  0  0  0
 12 13  1  0  0  0  0
 13 14  1  0  0  0  0
 13 31  1  1  0  0  0
 14 15  1  0  0  0  0
 14 20  1  0  0  0  0
 15 16  2  0  0  0  0
 15 22  1  0  0  0  0
 16 17  1  0  0  0  0
 16 32  1  0  0  0  0
 17 18  2  0  0  0  0
 17 19  1  0  0  0  0
 19 20  1  0  0  0  0
 19 33  1  0  0  0  0
 20 21  2  0  0  0  0
 22 23  3  0  0  0  0
M  CHG  2  14   1  19   1
M  END
$$$$
