6CS
 OpenBabel04051919463D

 21 21  0  0  1  0  0  0  0  0999 V2000
   43.5007   29.8627   33.3191 O   0  0  0  0  0  0  0  0  0  0  0  0
   43.6697   30.9889   33.8723 C   0  0  0  0  0  0  0  0  0  0  0  0
   43.9381   31.2954   35.0704 O   0  0  0  0  0  0  0  0  0  0  0  0
   43.5172   32.1924   32.9133 C   0  0  1  0  0  0  0  0  0  0  0  0
   42.8914   31.7659   31.6354 N   0  0  0  0  0  0  0  0  0  0  0  0
   42.1839   32.5876   30.8964 C   0  0  0  0  0  0  0  0  0  0  0  0
   41.5936   32.1066   29.6388 C   0  0  0  0  0  0  0  0  0  0  0  0
   41.9680   33.8417   31.2479 N   0  0  0  0  0  0  0  0  0  0  0  0
   42.4281   34.3796   32.5359 C   0  0  0  0  0  0  0  0  0  0  0  0
   42.6533   33.2684   33.5612 C   0  0  2  0  0  0  0  0  0  0  0  0
   43.2531   33.8569   34.7168 O   0  0  0  0  0  0  0  0  0  0  0  0
   44.5223   32.5628   32.6875 H   0  0  0  0  0  0  0  0  0  0  0  0
   41.8312   31.0418   29.4554 H   0  0  0  0  0  0  0  0  0  0  0  0
   41.9764   32.6737   28.7858 H   0  0  0  0  0  0  0  0  0  0  0  0
   40.5047   32.2010   29.6647 H   0  0  0  0  0  0  0  0  0  0  0  0
   41.4565   34.4396   30.6101 H   0  0  0  0  0  0  0  0  0  0  0  0
   41.6507   35.0701   32.9099 H   0  0  0  0  0  0  0  0  0  0  0  0
   43.3171   34.9928   32.3784 H   0  0  0  0  0  0  0  0  0  0  0  0
   41.6778   32.8574   33.8460 H   0  0  0  0  0  0  0  0  0  0  0  0
   43.4857   33.0895   35.3030 H   0  0  0  0  0  0  0  0  0  0  0  0
   43.0002   30.7716   31.4137 H   0  0  0  0  0  0  0  0  0  0  0  0
  1  2  2  0  0  0  0
  2  3  1  0  0  0  0
  2  4  1  0  0  0  0
  4  5  1  0  0  0  0
  4 10  1  0  0  0  0
  4 12  1  6  0  0  0
  5  6  2  0  0  0  0
  5 21  1  0  0  0  0
  6  7  1  0  0  0  0
  6  8  1  0  0  0  0
  7 13  1  0  0  0  0
  7 14  1  0  0  0  0
  7 15  1  0  0  0  0
  8  9  1  0  0  0  0
  8 16  1  0  0  0  0
  9 10  1  0  0  0  0
  9 17  1  0  0  0  0
  9 18  1  0  0  0  0
 10 11  1  0  0  0  0
 10 19  1  1  0  0  0
 11 20  1  0  0  0  0
M  END
$$$$
