720
 OpenBabel04051918243D

 38 38  0  0  1  0  0  0  0  0999 V2000
   79.4726   16.3495   -0.6884 N   0  3  0  0  0  0  0  0  0  0  0  0
   80.3482   17.2862   -1.4383 C   0  0  0  0  0  0  0  0  0  0  0  0
   80.0769   24.3118    3.2781 C   0  0  0  0  0  0  0  0  0  0  0  0
   82.9705   27.6451    2.1695 C   0  0  0  0  0  0  0  0  0  0  0  0
   82.2756   25.2774    2.5679 C   0  0  0  0  0  0  0  0  0  0  0  0
   82.0843   26.5081    1.6843 C   0  0  0  0  0  0  0  0  0  0  0  0
   80.9085   18.3285   -0.4835 C   0  0  0  0  0  0  0  0  0  0  0  0
   79.8409   19.3470   -0.0554 C   0  0  0  0  0  0  0  0  0  0  0  0
   80.4042   20.4250    0.8759 C   0  0  1  0  0  0  0  0  0  0  0  0
   79.3328   21.4433    1.2806 C   0  0  0  0  0  0  0  0  0  0  0  0
   79.9005   22.6739    1.9089 C   0  0  0  0  0  0  0  0  0  0  0  0
   81.0659   23.3309    1.5743 C   0  0  0  0  0  0  0  0  0  0  0  0
   79.2668   23.3296    2.9419 N   0  0  0  0  0  0  0  0  0  0  0  0
   80.9642   19.7857    2.1538 C   0  0  0  0  0  0  0  0  0  0  0  0
   81.1717   24.3507    2.4651 N   0  3  0  0  0  0  0  0  0  0  0  0
   82.2123   19.9181    2.2964 O   0  0  0  0  0  0  0  0  0  0  0  0
   80.1523   19.0512    2.7858 O   0  0  0  0  0  0  0  0  0  0  0  0
   79.0697   15.6274   -1.2846 H   0  0  0  0  0  0  0  0  0  0  0  0
   80.0063   15.9018    0.0693 H   0  0  0  0  0  0  0  0  0  0  0  0
   79.7498   17.7286   -2.2287 H   0  0  0  0  0  0  0  0  0  0  0  0
   81.1419   16.6843   -1.8801 H   0  0  0  0  0  0  0  0  0  0  0  0
   79.9212   25.0086    4.0880 H   0  0  0  0  0  0  0  0  0  0  0  0
   82.8491   28.5260    1.5337 H   0  0  0  0  0  0  0  0  0  0  0  0
   84.0241   27.3500    2.1586 H   0  0  0  0  0  0  0  0  0  0  0  0
   82.7033   27.9258    3.1935 H   0  0  0  0  0  0  0  0  0  0  0  0
   82.3624   25.5541    3.6222 H   0  0  0  0  0  0  0  0  0  0  0  0
   83.1949   24.7444    2.2914 H   0  0  0  0  0  0  0  0  0  0  0  0
   82.3294   26.2646    0.6444 H   0  0  0  0  0  0  0  0  0  0  0  0
   81.0406   26.8383    1.6944 H   0  0  0  0  0  0  0  0  0  0  0  0
   81.7305   18.8557   -0.9846 H   0  0  0  0  0  0  0  0  0  0  0  0
   81.3397   17.8258    0.3888 H   0  0  0  0  0  0  0  0  0  0  0  0
   78.9929   18.8411    0.4178 H   0  0  0  0  0  0  0  0  0  0  0  0
   79.4517   19.8355   -0.9583 H   0  0  0  0  0  0  0  0  0  0  0  0
   81.2159   20.9242    0.3324 H   0  0  0  0  0  0  0  0  0  0  0  0
   78.5855   20.9925    1.9539 H   0  0  0  0  0  0  0  0  0  0  0  0
   78.7878   21.7619    0.3878 H   0  0  0  0  0  0  0  0  0  0  0  0
   81.8212   23.1150    0.8311 H   0  0  0  0  0  0  0  0  0  0  0  0
   78.7106   16.8559   -0.2201 H   0  0  0  0  0  0  0  0  0  0  0  0
  1  2  1  0  0  0  0
  1 18  1  0  0  0  0
  1 19  1  0  0  0  0
  1 38  1  0  0  0  0
  2  7  1  0  0  0  0
  2 20  1  0  0  0  0
  2 21  1  0  0  0  0
  3 13  1  0  0  0  0
  3 15  2  0  0  0  0
  3 22  1  0  0  0  0
  4  6  1  0  0  0  0
  4 23  1  0  0  0  0
  4 24  1  0  0  0  0
  4 25  1  0  0  0  0
  5  6  1  0  0  0  0
  5 15  1  0  0  0  0
  5 26  1  0  0  0  0
  5 27  1  0  0  0  0
  6 28  1  0  0  0  0
  6 29  1  0  0  0  0
  7  8  1  0  0  0  0
  7 30  1  0  0  0  0
  7 31  1  0  0  0  0
  8  9  1  0  0  0  0
  8 32  1  0  0  0  0
  8 33  1  0  0  0  0
  9 10  1  0  0  0  0
  9 14  1  0  0  0  0
  9 34  1  6  0  0  0
 10 11  1  0  0  0  0
 10 35  1  0  0  0  0
 10 36  1  0  0  0  0
 11 12  2  0  0  0  0
 11 13  1  0  0  0  0
 12 15  1  0  0  0  0
 12 37  1  0  0  0  0
 14 16  2  0  0  0  0
 14 17  1  0  0  0  0
M  CHG  2   1   1  15   1
M  END
$$$$
