784
 OpenBabel04051917273D

 63 66  0  0  1  0  0  0  0  0999 V2000
   -5.1180   11.6301   18.9451 O   0  0  0  0  0  0  0  0  0  0  0  0
   -4.7210   11.2879   20.0558 C   0  0  0  0  0  0  0  0  0  0  0  0
   -5.5048   10.8395   21.0580 N   0  0  0  0  0  0  0  0  0  0  0  0
   -6.9057   10.4438   20.8007 C   0  0  0  0  0  0  0  0  0  0  0  0
   -6.9533    9.0804   20.0761 C   0  0  0  0  0  0  0  0  0  0  0  0
   -8.2365    8.3631   20.4629 C   0  0  0  0  0  0  0  0  0  0  0  0
   -8.6270    7.2040   19.5733 N   0  3  0  0  0  0  0  0  0  0  0  0
   -8.5784    7.5415   18.1027 C   0  0  0  0  0  0  0  0  0  0  0  0
  -10.0700    6.8523   19.9113 C   0  0  0  0  0  0  0  0  0  0  0  0
   -7.7705    5.9882   19.8239 C   0  0  0  0  0  0  0  0  0  0  0  0
   -3.2612   11.1856   20.4087 C   0  0  2  0  0  0  0  0  0  0  0  0
   -3.2676   10.2317   21.5893 C   0  0  2  0  0  0  0  0  0  0  0  0
   -4.7290   10.1628   21.9261 C   0  0  0  0  0  0  0  0  0  0  0  0
   -5.1839    9.4041   22.7902 O   0  0  0  0  0  0  0  0  0  0  0  0
   -2.8145   12.5420   20.9105 C   0  0  2  0  0  0  0  0  0  0  0  0
   -1.5175   13.0499   20.3169 C   0  0  0  0  0  0  0  0  0  0  0  0
   -0.6604   13.5552   21.4600 C   0  0  0  0  0  0  0  0  0  0  0  0
   -1.3278   13.1632   22.7543 C   0  0  0  0  0  0  0  0  0  0  0  0
   -2.5478   12.3648   22.3838 N   0  3  2  0  0  0  0  0  0  0  0  0
   -2.3702   10.8890   22.6180 C   0  0  1  0  0  0  0  0  0  0  0  0
   -2.5216   10.4486   24.0413 C   0  0  0  0  0  0  0  0  0  0  0  0
   -3.4051   11.0586   24.9344 C   0  0  0  0  0  0  0  0  0  0  0  0
   -3.5128   10.5941   26.2374 C   0  0  0  0  0  0  0  0  0  0  0  0
   -2.7466    9.5080   26.6952 C   0  0  0  0  0  0  0  0  0  0  0  0
   -2.9128    9.0380   28.0815 C   0  0  0  0  0  0  0  0  0  0  0  0
   -2.3047    7.9387   28.5120 N   0  0  0  0  0  0  0  0  0  0  0  0
   -3.6774    9.6874   28.9127 N   0  0  0  0  0  0  0  0  0  0  0  0
   -1.8613    8.9083   25.7870 C   0  0  0  0  0  0  0  0  0  0  0  0
   -1.7404    9.3658   24.4779 C   0  0  0  0  0  0  0  0  0  0  0  0
   -7.4099   11.1763   20.1555 H   0  0  0  0  0  0  0  0  0  0  0  0
   -7.4680   10.3486   21.7408 H   0  0  0  0  0  0  0  0  0  0  0  0
   -6.0924    8.4606   20.3556 H   0  0  0  0  0  0  0  0  0  0  0  0
   -6.9090    9.2556   18.9970 H   0  0  0  0  0  0  0  0  0  0  0  0
   -9.0725    9.0666   20.4325 H   0  0  0  0  0  0  0  0  0  0  0  0
   -8.1343    7.9522   21.4733 H   0  0  0  0  0  0  0  0  0  0  0  0
   -8.8797    6.6560   17.5417 H   0  0  0  0  0  0  0  0  0  0  0  0
   -7.5538    7.8017   17.8530 H   0  0  0  0  0  0  0  0  0  0  0  0
   -9.2587    8.3751   17.9259 H   0  0  0  0  0  0  0  0  0  0  0  0
  -10.1123    6.6102   20.9750 H   0  0  0  0  0  0  0  0  0  0  0  0
  -10.3624    6.0007   19.2965 H   0  0  0  0  0  0  0  0  0  0  0  0
  -10.6836    7.7272   19.6861 H   0  0  0  0  0  0  0  0  0  0  0  0
   -6.7425    6.2500   19.5741 H   0  0  0  0  0  0  0  0  0  0  0  0
   -8.1328    5.1811   19.1834 H   0  0  0  0  0  0  0  0  0  0  0  0
   -7.8639    5.7182   20.8773 H   0  0  0  0  0  0  0  0  0  0  0  0
   -2.6594   10.8263   19.5674 H   0  0  0  0  0  0  0  0  0  0  0  0
   -2.8760    9.2349   21.3272 H   0  0  0  0  0  0  0  0  0  0  0  0
   -3.6000   13.2902   20.8018 H   0  0  0  0  0  0  0  0  0  0  0  0
   -1.7319   13.8642   19.6149 H   0  0  0  0  0  0  0  0  0  0  0  0
   -0.9907   12.2653   19.7650 H   0  0  0  0  0  0  0  0  0  0  0  0
   -0.5508   14.6436   21.4152 H   0  0  0  0  0  0  0  0  0  0  0  0
    0.3430   13.1165   21.4092 H   0  0  0  0  0  0  0  0  0  0  0  0
   -1.6574   14.0324   23.3244 H   0  0  0  0  0  0  0  0  0  0  0  0
   -0.6809   12.5352   23.3709 H   0  0  0  0  0  0  0  0  0  0  0  0
   -1.3235   10.6910   22.3411 H   0  0  0  0  0  0  0  0  0  0  0  0
   -4.0283   11.8948   24.6292 H   0  0  0  0  0  0  0  0  0  0  0  0
   -4.2196   11.0912   26.8924 H   0  0  0  0  0  0  0  0  0  0  0  0
   -2.4482    7.6208   29.4529 H   0  0  0  0  0  0  0  0  0  0  0  0
   -4.1448   10.5334   28.6268 H   0  0  0  0  0  0  0  0  0  0  0  0
   -3.8316    9.3836   29.8596 H   0  0  0  0  0  0  0  0  0  0  0  0
   -1.2469    8.0610   26.0881 H   0  0  0  0  0  0  0  0  0  0  0  0
   -1.0339    8.8947   23.8011 H   0  0  0  0  0  0  0  0  0  0  0  0
   -3.3581   12.7081   22.9202 H   0  0  0  0  0  0  0  0  0  0  0  0
   -1.7066    7.4080   27.9096 H   0  0  0  0  0  0  0  0  0  0  0  0
  1  2  2  0  0  0  0
  2  3  1  0  0  0  0
  2 11  1  0  0  0  0
  3  4  1  0  0  0  0
  3 13  1  0  0  0  0
  4  5  1  0  0  0  0
  4 30  1  0  0  0  0
  4 31  1  0  0  0  0
  5  6  1  0  0  0  0
  5 32  1  0  0  0  0
  5 33  1  0  0  0  0
  6  7  1  0  0  0  0
  6 34  1  0  0  0  0
  6 35  1  0  0  0  0
  7  8  1  0  0  0  0
  7  9  1  0  0  0  0
  7 10  1  0  0  0  0
  8 36  1  0  0  0  0
  8 37  1  0  0  0  0
  8 38  1  0  0  0  0
  9 39  1  0  0  0  0
  9 40  1  0  0  0  0
  9 41  1  0  0  0  0
 10 42  1  0  0  0  0
 10 43  1  0  0  0  0
 10 44  1  0  0  0  0
 11 12  1  0  0  0  0
 11 15  1  0  0  0  0
 11 45  1  6  0  0  0
 12 13  1  0  0  0  0
 12 20  1  0  0  0  0
 12 46  1  6  0  0  0
 13 14  2  0  0  0  0
 15 16  1  0  0  0  0
 15 19  1  0  0  0  0
 15 47  1  6  0  0  0
 16 17  1  0  0  0  0
 16 48  1  0  0  0  0
 16 49  1  0  0  0  0
 17 18  1  0  0  0  0
 17 50  1  0  0  0  0
 17 51  1  0  0  0  0
 18 19  1  0  0  0  0
 18 52  1  0  0  0  0
 18 53  1  0  0  0  0
 19 20  1  0  0  0  0
 19 62  1  1  0  0  0
 20 21  1  0  0  0  0
 20 54  1  6  0  0  0
 21 22  2  0  0  0  0
 21 29  1  0  0  0  0
 22 23  1  0  0  0  0
 22 55  1  0  0  0  0
 23 24  2  0  0  0  0
 23 56  1  0  0  0  0
 24 25  1  0  0  0  0
 24 28  1  0  0  0  0
 25 26  2  0  0  0  0
 25 27  1  0  0  0  0
 26 57  1  0  0  0  0
 26 63  1  0  0  0  0
 27 58  1  0  0  0  0
 27 59  1  0  0  0  0
 28 29  2  0  0  0  0
 28 60  1  0  0  0  0
 29 61  1  0  0  0  0
M  CHG  2   7   1  19   1
M  END
$$$$
