78P
 OpenBabel04051919223D

 35 37  0  0  1  0  0  0  0  0999 V2000
   26.5559   65.6069    9.3794 C   0  0  0  0  0  0  0  0  0  0  0  0
   26.9484   66.4228   10.4871 C   0  0  0  0  0  0  0  0  0  0  0  0
   28.2893   66.3476   10.9235 C   0  0  0  0  0  0  0  0  0  0  0  0
   25.5400   64.5542    7.7559 C   0  0  0  0  0  0  0  0  0  0  0  0
   26.0291   67.3678   11.2105 C   0  0  0  0  0  0  0  0  0  0  0  0
   24.5015   64.0878    6.7798 C   0  0  1  0  0  0  0  0  0  0  0  0
   22.3818   63.6469    7.9075 C   0  0  0  0  0  0  0  0  0  0  0  0
   24.2762   62.5824    6.8644 C   0  0  0  0  0  0  0  0  0  0  0  0
   29.2079   65.4953   10.2858 C   0  0  0  0  0  0  0  0  0  0  0  0
   28.8243   64.6986    9.1974 C   0  0  0  0  0  0  0  0  0  0  0  0
   27.4991   64.7717    8.7643 C   0  0  0  0  0  0  0  0  0  0  0  0
   26.8471   64.1151    7.7325 N   0  3  0  0  0  0  0  0  0  0  0  0
   25.3340   65.4466    8.7180 N   0  0  0  0  0  0  0  0  0  0  0  0
   24.7151   67.2961   10.9131 N   0  0  0  0  0  0  0  0  0  0  0  0
   26.4124   68.1758   12.0455 O   0  0  0  0  0  0  0  0  0  0  0  0
   23.1564   64.6590    7.1395 N   0  3  0  0  0  0  0  0  0  0  0  0
   23.2492   62.4101    7.9689 C   0  0  0  0  0  0  0  0  0  0  0  0
   24.8784   64.5473    5.3804 C   0  0  0  0  0  0  0  0  0  0  0  0
   28.6154   66.9599   11.7697 H   0  0  0  0  0  0  0  0  0  0  0  0
   21.4525   63.4582    7.3655 H   0  0  0  0  0  0  0  0  0  0  0  0
   22.1718   64.0495    8.9001 H   0  0  0  0  0  0  0  0  0  0  0  0
   25.2047   62.0582    7.1109 H   0  0  0  0  0  0  0  0  0  0  0  0
   23.8880   62.1748    5.9210 H   0  0  0  0  0  0  0  0  0  0  0  0
   30.2434   65.4499   10.6397 H   0  0  0  0  0  0  0  0  0  0  0  0
   29.5392   64.0434    8.7061 H   0  0  0  0  0  0  0  0  0  0  0  0
   27.2548   63.4459    7.0986 H   0  0  0  0  0  0  0  0  0  0  0  0
   24.0562   67.9173   11.3773 H   0  0  0  0  0  0  0  0  0  0  0  0
   24.3754   66.6402   10.2160 H   0  0  0  0  0  0  0  0  0  0  0  0
   23.3096   65.5029    7.7168 H   0  0  0  0  0  0  0  0  0  0  0  0
   22.6431   61.5120    7.8199 H   0  0  0  0  0  0  0  0  0  0  0  0
   23.7404   62.3397    8.9492 H   0  0  0  0  0  0  0  0  0  0  0  0
   25.8477   64.1139    5.1035 H   0  0  0  0  0  0  0  0  0  0  0  0
   24.9683   65.6408    5.3501 H   0  0  0  0  0  0  0  0  0  0  0  0
   24.1338   64.2340    4.6394 H   0  0  0  0  0  0  0  0  0  0  0  0
   22.6439   64.9478    6.3002 H   0  0  0  0  0  0  0  0  0  0  0  0
  1  2  2  0  0  0  0
  1 11  1  0  0  0  0
  1 13  1  0  0  0  0
  2  3  1  0  0  0  0
  2  5  1  0  0  0  0
  3  9  2  0  0  0  0
  3 19  1  0  0  0  0
  4 12  2  0  0  0  0
  4 13  1  0  0  0  0
  5 14  1  0  0  0  0
  5 15  2  0  0  0  0
  6  4  1  1  0  0  0
  6  8  1  0  0  0  0
  6 16  1  0  0  0  0
  6 18  1  0  0  0  0
  7 16  1  0  0  0  0
  7 17  1  0  0  0  0
  7 20  1  0  0  0  0
  7 21  1  0  0  0  0
  8 17  1  0  0  0  0
  8 22  1  0  0  0  0
  8 23  1  0  0  0  0
  9 10  1  0  0  0  0
  9 24  1  0  0  0  0
 10 11  2  0  0  0  0
 10 25  1  0  0  0  0
 11 12  1  0  0  0  0
 12 26  1  0  0  0  0
 14 27  1  0  0  0  0
 14 28  1  0  0  0  0
 16 29  1  0  0  0  0
 16 35  1  0  0  0  0
 17 30  1  0  0  0  0
 17 31  1  0  0  0  0
 18 32  1  0  0  0  0
 18 33  1  0  0  0  0
 18 34  1  0  0  0  0
M  CHG  2  12   1  16   1
M  END
$$$$
