7NH
 OpenBabel04051917563D

 45 48  0  0  0  0  0  0  0  0999 V2000
   46.4343   -8.9798   12.5859 N   0  0  0  0  0  0  0  0  0  0  0  0
   46.3328   -7.6816   12.2089 C   0  0  0  0  0  0  0  0  0  0  0  0
   47.2553   -7.0032   11.4449 C   0  0  0  0  0  0  0  0  0  0  0  0
   48.3376   -7.7863   11.0513 C   0  0  0  0  0  0  0  0  0  0  0  0
   48.5197   -9.1006   11.4346 C   0  0  0  0  0  0  0  0  0  0  0  0
   47.5283   -9.6978   12.2117 C   0  0  0  0  0  0  0  0  0  0  0  0
   49.3529   -7.4518   10.2319 N   0  3  0  0  0  0  0  0  0  0  0  0
   49.7540   -9.5135   10.8678 C   0  0  0  0  0  0  0  0  0  0  0  0
   50.2883   -8.4436   10.1577 C   0  0  0  0  0  0  0  0  0  0  0  0
   51.5303   -8.3210    9.3953 C   0  0  0  0  0  0  0  0  0  0  0  0
   52.3166   -9.4756    9.2170 C   0  0  0  0  0  0  0  0  0  0  0  0
   53.4992   -9.4425    8.4907 C   0  0  0  0  0  0  0  0  0  0  0  0
   53.9191   -8.2463    7.9276 C   0  0  0  0  0  0  0  0  0  0  0  0
   53.1660   -7.0637    8.0741 C   0  0  0  0  0  0  0  0  0  0  0  0
   51.9702   -7.1197    8.8114 C   0  0  0  0  0  0  0  0  0  0  0  0
   51.2422   -5.9504    8.8943 O   0  0  0  0  0  0  0  0  0  0  0  0
   56.9840   -3.9899    7.1627 C   0  0  0  0  0  0  0  0  0  0  0  0
   57.5651   -4.2738    8.4682 N   0  0  0  0  0  0  0  0  0  0  0  0
   58.3988   -5.3312    8.6615 C   0  0  0  0  0  0  0  0  0  0  0  0
   58.7714   -6.1089    7.7912 O   0  0  0  0  0  0  0  0  0  0  0  0
   58.8218   -5.4649    9.9348 N   0  0  0  0  0  0  0  0  0  0  0  0
   53.6604   -5.8110    7.4913 C   0  0  0  0  0  0  0  0  0  0  0  0
   52.8066   -4.9225    6.8158 C   0  0  0  0  0  0  0  0  0  0  0  0
   53.2762   -3.7464    6.3024 C   0  0  0  0  0  0  0  0  0  0  0  0
   54.6409   -3.4076    6.4229 C   0  0  0  0  0  0  0  0  0  0  0  0
   55.5153   -4.2754    7.0970 C   0  0  0  0  0  0  0  0  0  0  0  0
   55.0150   -5.4744    7.6319 C   0  0  0  0  0  0  0  0  0  0  0  0
   45.4365   -7.1688   12.5409 H   0  0  0  0  0  0  0  0  0  0  0  0
   47.1518   -5.9653   11.1496 H   0  0  0  0  0  0  0  0  0  0  0  0
   47.5711  -10.7321   12.5274 H   0  0  0  0  0  0  0  0  0  0  0  0
   49.3581   -6.5750    9.7338 H   0  0  0  0  0  0  0  0  0  0  0  0
   50.2045  -10.4925   10.9736 H   0  0  0  0  0  0  0  0  0  0  0  0
   52.0068  -10.4287    9.6319 H   0  0  0  0  0  0  0  0  0  0  0  0
   54.0885  -10.3460    8.3607 H   0  0  0  0  0  0  0  0  0  0  0  0
   54.8468   -8.2367    7.3594 H   0  0  0  0  0  0  0  0  0  0  0  0
   50.9396   -5.8070    9.8007 H   0  0  0  0  0  0  0  0  0  0  0  0
   57.4853   -4.5764    6.3912 H   0  0  0  0  0  0  0  0  0  0  0  0
   57.1714   -2.9295    6.9808 H   0  0  0  0  0  0  0  0  0  0  0  0
   57.1947   -3.7899    9.2687 H   0  0  0  0  0  0  0  0  0  0  0  0
   59.4497   -6.2354   10.1258 H   0  0  0  0  0  0  0  0  0  0  0  0
   58.5098   -4.8872   10.6951 H   0  0  0  0  0  0  0  0  0  0  0  0
   51.7525   -5.1544    6.7110 H   0  0  0  0  0  0  0  0  0  0  0  0
   52.5975   -3.0584    5.7883 H   0  0  0  0  0  0  0  0  0  0  0  0
   54.9993   -2.4914    5.9781 H   0  0  0  0  0  0  0  0  0  0  0  0
   55.6872   -6.1416    8.1650 H   0  0  0  0  0  0  0  0  0  0  0  0
  1  2  1  0  0  0  0
  1  6  1  0  0  0  0
  2  3  2  0  0  0  0
  2 28  1  0  0  0  0
  3  4  1  0  0  0  0
  3 29  1  0  0  0  0
  4  5  1  0  0  0  0
  4  7  2  0  0  0  0
  5  6  2  0  0  0  0
  5  8  1  0  0  0  0
  6 30  1  0  0  0  0
  7  9  1  0  0  0  0
  7 31  1  0  0  0  0
  8  9  2  0  0  0  0
  8 32  1  0  0  0  0
  9 10  1  0  0  0  0
 10 11  2  0  0  0  0
 10 15  1  0  0  0  0
 11 12  1  0  0  0  0
 11 33  1  0  0  0  0
 12 13  2  0  0  0  0
 12 34  1  0  0  0  0
 13 14  1  0  0  0  0
 13 35  1  0  0  0  0
 14 15  2  0  0  0  0
 14 22  1  0  0  0  0
 15 16  1  0  0  0  0
 16 36  1  0  0  0  0
 17 18  1  0  0  0  0
 17 26  1  0  0  0  0
 17 37  1  0  0  0  0
 17 38  1  0  0  0  0
 18 19  1  0  0  0  0
 18 39  1  0  0  0  0
 19 20  2  0  0  0  0
 19 21  1  0  0  0  0
 21 40  1  0  0  0  0
 21 41  1  0  0  0  0
 22 23  2  0  0  0  0
 22 27  1  0  0  0  0
 23 24  1  0  0  0  0
 23 42  1  0  0  0  0
 24 25  2  0  0  0  0
 24 43  1  0  0  0  0
 25 26  1  0  0  0  0
 25 44  1  0  0  0  0
 26 27  2  0  0  0  0
 27 45  1  0  0  0  0
M  CHG  1   7   1
M  END
$$$$
