82A
 OpenBabel04051918383D

 48 51  0  0  1  0  0  0  0  0999 V2000
  -15.3787   10.8134   38.9713 C   0  0  0  0  0  0  0  0  0  0  0  0
  -16.9795   12.0199   40.5282 C   0  0  1  0  0  0  0  0  0  0  0  0
  -19.1522   11.5259   41.0235 N   0  0  0  0  0  0  0  0  0  0  0  0
  -18.8081   12.6879   41.5784 C   0  0  0  0  0  0  0  0  0  0  0  0
  -17.4634   13.0574   41.3109 C   0  0  2  0  0  0  0  0  0  0  0  0
  -16.7873   14.2676   41.7475 C   0  0  2  0  0  0  0  0  0  0  0  0
  -16.8371   14.6366   43.1012 C   0  0  0  0  0  0  0  0  0  0  0  0
  -16.2320   15.8126   43.5474 C   0  0  0  0  0  0  0  0  0  0  0  0
  -15.5668   16.6397   42.6430 C   0  0  0  0  0  0  0  0  0  0  0  0
  -15.5305   16.2864   41.2927 C   0  0  2  0  0  0  0  0  0  0  0  0
  -16.1467   15.1196   40.8374 C   0  0  0  0  0  0  0  0  0  0  0  0
  -10.1802   14.9575   39.0566 C   0  0  1  0  0  0  0  0  0  0  0  0
  -11.0064   17.1466   38.3879 C   0  0  0  0  0  0  0  0  0  0  0  0
  -10.0562   17.1945   37.3751 C   0  0  1  0  0  0  0  0  0  0  0  0
  -10.7938   14.2006   42.3327 O   0  0  0  0  0  0  0  0  0  0  0  0
   -9.7147   14.0990   41.3931 C   0  0  0  0  0  0  0  0  0  0  0  0
  -10.2241   13.7424   39.9728 C   0  0  1  0  0  0  0  0  0  0  0  0
  -11.5692   13.1973   40.0287 N   0  0  0  0  0  0  0  0  0  0  0  0
  -12.0173   12.1604   39.2585 C   0  0  0  0  0  0  0  0  0  0  0  0
  -11.2908   11.5350   38.4930 O   0  0  0  0  0  0  0  0  0  0  0  0
  -13.4241   11.8562   39.4100 C   0  0  1  0  0  0  0  0  0  0  0  0
  -14.4053   12.3899   40.2342 C   0  0  0  0  0  0  0  0  0  0  0  0
  -15.6370   11.7641   39.9386 C   0  0  1  0  0  0  0  0  0  0  0  0
  -14.0441   10.8867   38.6519 N   0  3  0  0  0  0  0  0  0  0  0  0
  -18.0320   11.1515   40.3854 N   0  3  0  0  0  0  0  0  0  0  0  0
  -14.7095   17.3076   40.1762 Cl  0  0  0  0  0  0  0  0  0  0  0  0
  -11.0649   16.0361   39.2299 C   0  0  0  0  0  0  0  0  0  0  0  0
  -10.0135   18.2786   36.5830 F   0  0  0  0  0  0  0  0  0  0  0  0
   -9.1628   16.1437   37.1910 C   0  0  1  0  0  0  0  0  0  0  0  0
   -7.9726   16.2078   35.9475 Cl  0  0  0  0  0  0  0  0  0  0  0  0
   -9.2216   15.0273   38.0279 C   0  0  0  0  0  0  0  0  0  0  0  0
  -16.0163   10.1116   38.4512 H   0  0  0  0  0  0  0  0  0  0  0  0
  -19.5494   13.2312   42.1511 H   0  0  0  0  0  0  0  0  0  0  0  0
  -17.3521   14.0071   43.8235 H   0  0  0  0  0  0  0  0  0  0  0  0
  -16.2806   16.0862   44.5996 H   0  0  0  0  0  0  0  0  0  0  0  0
  -15.0929   17.5499   42.9891 H   0  0  0  0  0  0  0  0  0  0  0  0
  -16.1235   14.8722   39.7800 H   0  0  0  0  0  0  0  0  0  0  0  0
  -11.6987   17.9753   38.5150 H   0  0  0  0  0  0  0  0  0  0  0  0
  -10.3858   14.2761   43.2141 H   0  0  0  0  0  0  0  0  0  0  0  0
   -9.0364   13.3137   41.7453 H   0  0  0  0  0  0  0  0  0  0  0  0
   -9.1680   15.0479   41.4105 H   0  0  0  0  0  0  0  0  0  0  0  0
   -9.5573   12.9783   39.5552 H   0  0  0  0  0  0  0  0  0  0  0  0
  -12.1945   13.6612   40.6716 H   0  0  0  0  0  0  0  0  0  0  0  0
  -14.2403   13.1516   40.9810 H   0  0  0  0  0  0  0  0  0  0  0  0
  -13.5652   10.3285   37.9562 H   0  0  0  0  0  0  0  0  0  0  0  0
  -18.0317   10.2619   39.9005 H   0  0  0  0  0  0  0  0  0  0  0  0
  -11.8100   16.0138   40.0242 H   0  0  0  0  0  0  0  0  0  0  0  0
   -8.5210   14.2088   37.8759 H   0  0  0  0  0  0  0  0  0  0  0  0
  1 24  1  0  0  0  0
  1 32  1  0  0  0  0
  2  5  1  0  0  0  0
  2 23  1  0  0  0  0
  2 25  1  1  0  0  0
  3  4  1  0  0  0  0
  3 25  1  0  0  0  0
  4 33  1  0  0  0  0
  5  4  1  6  0  0  0
  5  6  1  0  0  0  0
  6  7  1  6  0  0  0
  6 11  1  0  0  0  0
  7  8  1  0  0  0  0
  7 34  1  0  0  0  0
  8  9  1  0  0  0  0
  8 35  1  0  0  0  0
  9 10  1  0  0  0  0
  9 36  1  0  0  0  0
 10 11  1  0  0  0  0
 10 26  1  1  0  0  0
 11 37  1  0  0  0  0
 12 17  1  0  0  0  0
 12 27  1  1  0  0  0
 12 31  1  0  0  0  0
 13 14  1  0  0  0  0
 13 27  1  0  0  0  0
 13 38  1  0  0  0  0
 14 28  1  1  0  0  0
 14 29  1  0  0  0  0
 15 16  1  0  0  0  0
 15 39  1  0  0  0  0
 16 17  1  0  0  0  0
 16 40  1  0  0  0  0
 16 41  1  0  0  0  0
 17 18  1  0  0  0  0
 17 42  1  6  0  0  0
 18 19  1  0  0  0  0
 18 43  1  0  0  0  0
 19 20  2  0  0  0  0
 21 19  1  6  0  0  0
 21 22  1  0  0  0  0
 21 24  1  0  0  0  0
 22 23  1  0  0  0  0
 22 44  1  0  0  0  0
 23  1  1  1  0  0  0
 24 45  1  0  0  0  0
 25 46  1  0  0  0  0
 27 47  1  0  0  0  0
 29 30  1  1  0  0  0
 29 31  1  0  0  0  0
 31 48  1  0  0  0  0
M  CHG  2  24   1  25   1
M  END
$$$$
