894
 OpenBabel04051918263D

 52 54  0  0  1  0  0  0  0  0999 V2000
   10.1428   25.4542   46.0726 Cl  0  0  0  0  0  0  0  0  0  0  0  0
   10.3902   23.9301   46.8242 C   0  0  0  0  0  0  0  0  0  0  0  0
   11.3185   22.9941   46.4560 C   0  0  0  0  0  0  0  0  0  0  0  0
   11.2641   21.8614   47.3132 C   0  0  0  0  0  0  0  0  0  0  0  0
   10.2696   21.9558   48.2715 C   0  0  0  0  0  0  0  0  0  0  0  0
    9.8865   20.9261   49.3123 C   0  0  0  0  0  0  0  0  0  0  0  0
    9.6880   18.2102   49.8780 S   0  0  0  0  0  0  0  0  0  0  0  0
    9.7941   16.9571   49.1633 O   0  0  0  0  0  0  0  0  0  0  0  0
   10.4761   18.4585   51.0662 O   0  0  0  0  0  0  0  0  0  0  0  0
    8.1103   18.3683   50.3469 N   0  0  0  0  0  0  0  0  0  0  0  0
    7.0400   17.9325   49.4563 C   0  0  1  0  0  0  0  0  0  0  0  0
    6.0198   17.0579   50.1791 C   0  0  0  0  0  0  0  0  0  0  0  0
    4.6869   17.3862   49.5143 C   0  0  0  0  0  0  0  0  0  0  0  0
    6.2169   19.0768   48.9160 C   0  0  0  0  0  0  0  0  0  0  0  0
    6.6523   20.1567   48.5472 O   0  0  0  0  0  0  0  0  0  0  0  0
    4.8916   18.6769   48.8918 N   0  0  0  0  0  0  0  0  0  0  0  0
    3.8280   19.4520   48.2335 C   0  0  1  0  0  0  0  0  0  0  0  0
    3.4832   18.8943   46.8500 C   0  0  0  0  0  0  0  0  0  0  0  0
    2.5601   19.5124   49.0882 C   0  0  0  0  0  0  0  0  0  0  0  0
    1.5607   18.8735   48.7829 O   0  0  0  0  0  0  0  0  0  0  0  0
    2.6039   20.2686   50.2525 N   0  0  0  0  0  0  0  0  0  0  0  0
    1.4277   20.3062   51.1167 C   0  0  0  0  0  0  0  0  0  0  0  0
    1.8060   19.9447   52.5560 C   0  0  0  0  0  0  0  0  0  0  0  0
    2.9165   20.7256   53.0299 O   0  0  0  0  0  0  0  0  0  0  0  0
    4.0652   20.5492   52.1885 C   0  0  0  0  0  0  0  0  0  0  0  0
    3.7587   21.0059   50.7602 C   0  0  0  0  0  0  0  0  0  0  0  0
    9.4476   23.4609   48.1530 S   0  0  0  0  0  0  0  0  0  0  0  0
    9.9993   19.5288   48.7227 C   0  0  0  0  0  0  0  0  0  0  0  0
   12.0069   23.1047   45.6285 H   0  0  0  0  0  0  0  0  0  0  0  0
   11.9161   21.0032   47.2074 H   0  0  0  0  0  0  0  0  0  0  0  0
    8.8691   21.0957   49.6795 H   0  0  0  0  0  0  0  0  0  0  0  0
   10.5547   21.0336   50.1730 H   0  0  0  0  0  0  0  0  0  0  0  0
    7.9231   18.8190   51.2430 H   0  0  0  0  0  0  0  0  0  0  0  0
    7.4256   17.3956   48.5864 H   0  0  0  0  0  0  0  0  0  0  0  0
    5.9773   17.2664   51.2561 H   0  0  0  0  0  0  0  0  0  0  0  0
    6.2635   15.9949   50.0745 H   0  0  0  0  0  0  0  0  0  0  0  0
    3.8919   17.4549   50.2646 H   0  0  0  0  0  0  0  0  0  0  0  0
    4.4124   16.6455   48.7589 H   0  0  0  0  0  0  0  0  0  0  0  0
    4.1860   20.4735   48.0687 H   0  0  0  0  0  0  0  0  0  0  0  0
    2.6791   19.4865   46.3954 H   0  0  0  0  0  0  0  0  0  0  0  0
    3.1343   17.8579   46.9070 H   0  0  0  0  0  0  0  0  0  0  0  0
    4.3484   18.9280   46.1792 H   0  0  0  0  0  0  0  0  0  0  0  0
    0.6467   19.6263   50.7660 H   0  0  0  0  0  0  0  0  0  0  0  0
    1.0303   21.3291   51.0685 H   0  0  0  0  0  0  0  0  0  0  0  0
    2.0676   18.8822   52.6277 H   0  0  0  0  0  0  0  0  0  0  0  0
    0.9552   20.1291   53.2170 H   0  0  0  0  0  0  0  0  0  0  0  0
    4.3631   19.4932   52.2048 H   0  0  0  0  0  0  0  0  0  0  0  0
    4.8900   21.1377   52.6035 H   0  0  0  0  0  0  0  0  0  0  0  0
    3.4945   22.0714   50.7464 H   0  0  0  0  0  0  0  0  0  0  0  0
    4.6424   20.8839   50.1435 H   0  0  0  0  0  0  0  0  0  0  0  0
   11.0249   19.3458   48.3869 H   0  0  0  0  0  0  0  0  0  0  0  0
    9.3472   19.4001   47.8480 H   0  0  0  0  0  0  0  0  0  0  0  0
  1  2  1  0  0  0  0
  2  3  2  0  0  0  0
  2 27  1  0  0  0  0
  3  4  1  0  0  0  0
  3 29  1  0  0  0  0
  4  5  2  0  0  0  0
  4 30  1  0  0  0  0
  5  6  1  0  0  0  0
  5 27  1  0  0  0  0
  6 28  1  0  0  0  0
  6 31  1  0  0  0  0
  6 32  1  0  0  0  0
  7  8  2  0  0  0  0
  7  9  2  0  0  0  0
  7 10  1  0  0  0  0
  7 28  1  0  0  0  0
 10 11  1  0  0  0  0
 10 33  1  0  0  0  0
 11 12  1  0  0  0  0
 11 14  1  0  0  0  0
 11 34  1  6  0  0  0
 12 13  1  0  0  0  0
 12 35  1  0  0  0  0
 12 36  1  0  0  0  0
 13 16  1  0  0  0  0
 13 37  1  0  0  0  0
 13 38  1  0  0  0  0
 14 15  2  0  0  0  0
 14 16  1  0  0  0  0
 16 17  1  0  0  0  0
 17 18  1  0  0  0  0
 17 19  1  0  0  0  0
 17 39  1  6  0  0  0
 18 40  1  0  0  0  0
 18 41  1  0  0  0  0
 18 42  1  0  0  0  0
 19 20  2  0  0  0  0
 19 21  1  0  0  0  0
 21 22  1  0  0  0  0
 21 26  1  0  0  0  0
 22 23  1  0  0  0  0
 22 43  1  0  0  0  0
 22 44  1  0  0  0  0
 23 24  1  0  0  0  0
 23 45  1  0  0  0  0
 23 46  1  0  0  0  0
 24 25  1  0  0  0  0
 25 26  1  0  0  0  0
 25 47  1  0  0  0  0
 25 48  1  0  0  0  0
 26 49  1  0  0  0  0
 26 50  1  0  0  0  0
 28 51  1  0  0  0  0
 28 52  1  0  0  0  0
M  END
$$$$
