8DA
 OpenBabel04051917163D

 32 34  0  0  1  0  0  0  0  0999 V2000
    2.8904    9.8482   22.3364 O   0  0  0  0  0  0  0  0  0  0  0  0
    1.5861   10.1000   21.8535 C   0  0  0  0  0  0  0  0  0  0  0  0
    1.2295   11.5680   21.9231 C   0  0  1  0  0  0  0  0  0  0  0  0
   -0.2711   11.7374   21.9296 C   0  0  2  0  0  0  0  0  0  0  0  0
   -0.4841   12.9375   21.1743 O   0  0  0  0  0  0  0  0  0  0  0  0
    1.6985   12.2185   23.1296 O   0  0  0  0  0  0  0  0  0  0  0  0
    0.5882   12.5897   23.9963 C   0  0  1  0  0  0  0  0  0  0  0  0
   -0.7078   12.1400   23.3066 C   0  0  0  0  0  0  0  0  0  0  0  0
    0.7391   12.0953   25.3824 N   0  3  0  0  0  0  0  0  0  0  0  0
    1.7271   11.2876   25.9570 C   0  0  0  0  0  0  0  0  0  0  0  0
    2.7470   10.7171   25.3533 N   0  0  0  0  0  0  0  0  0  0  0  0
    1.4248   11.1729   27.3071 C   0  0  0  0  0  0  0  0  0  0  0  0
    0.2649   11.9037   27.5978 N   0  3  0  0  0  0  0  0  0  0  0  0
   -0.1447   12.4779   26.3939 C   0  0  0  0  0  0  0  0  0  0  0  0
   -1.0934   13.1639   26.2699 O   0  0  0  0  0  0  0  0  0  0  0  0
    2.2472   10.4227   28.0936 C   0  0  0  0  0  0  0  0  0  0  0  0
    2.0425   10.2327   29.4409 N   0  0  0  0  0  0  0  0  0  0  0  0
    3.3179    9.8148   27.5231 N   0  0  0  0  0  0  0  0  0  0  0  0
    3.5261   10.0010   26.1783 C   0  0  0  0  0  0  0  0  0  0  0  0
    2.9067   10.1784   23.2599 H   0  0  0  0  0  0  0  0  0  0  0  0
    0.8670    9.5277   22.4337 H   0  0  0  0  0  0  0  0  0  0  0  0
    1.5291    9.7546   20.8091 H   0  0  0  0  0  0  0  0  0  0  0  0
    1.6560   12.0889   21.0358 H   0  0  0  0  0  0  0  0  0  0  0  0
   -0.8236   10.8637   21.5247 H   0  0  0  0  0  0  0  0  0  0  0  0
    0.0117   12.8338   20.3430 H   0  0  0  0  0  0  0  0  0  0  0  0
    0.5584   13.6965   24.0230 H   0  0  0  0  0  0  0  0  0  0  0  0
   -1.2041   11.3419   23.8604 H   0  0  0  0  0  0  0  0  0  0  0  0
   -1.4088   12.9866   23.2177 H   0  0  0  0  0  0  0  0  0  0  0  0
   -0.2329   12.0342   28.4631 H   0  0  0  0  0  0  0  0  0  0  0  0
    2.6877    9.6595   29.9669 H   0  0  0  0  0  0  0  0  0  0  0  0
    1.2621   10.6701   29.9015 H   0  0  0  0  0  0  0  0  0  0  0  0
    4.4065    9.5170   25.7447 H   0  0  0  0  0  0  0  0  0  0  0  0
  1  2  1  0  0  0  0
  1 20  1  0  0  0  0
  2  3  1  0  0  0  0
  2 21  1  0  0  0  0
  2 22  1  0  0  0  0
  3  4  1  0  0  0  0
  3  6  1  0  0  0  0
  3 23  1  6  0  0  0
  4  5  1  0  0  0  0
  4  8  1  0  0  0  0
  4 24  1  6  0  0  0
  5 25  1  0  0  0  0
  6  7  1  0  0  0  0
  7  8  1  0  0  0  0
  7  9  1  0  0  0  0
  7 26  1  1  0  0  0
  8 27  1  0  0  0  0
  8 28  1  0  0  0  0
  9 10  1  0  0  0  0
  9 14  1  0  0  0  0
 10 11  2  0  0  0  0
 10 12  1  0  0  0  0
 11 19  1  0  0  0  0
 12 13  1  0  0  0  0
 12 16  2  0  0  0  0
 13 14  1  0  0  0  0
 13 29  1  0  0  0  0
 14 15  2  0  0  0  0
 16 17  1  0  0  0  0
 16 18  1  0  0  0  0
 17 30  1  0  0  0  0
 17 31  1  0  0  0  0
 18 19  2  0  0  0  0
 19 32  1  0  0  0  0
M  CHG  2   9   1  13   1
M  END
$$$$
