902
 OpenBabel04051918323D

 62 66  0  0  0  0  0  0  0  0999 V2000
   44.8964   13.7216    0.4472 S   0  0  0  0  0  0  0  0  0  0  0  0
   44.9638   15.0936    1.4840 C   0  0  0  0  0  0  0  0  0  0  0  0
   45.8089   14.8697    2.5588 C   0  0  0  0  0  0  0  0  0  0  0  0
   46.3616   13.5387    2.5183 C   0  0  0  0  0  0  0  0  0  0  0  0
   45.9480   12.7787    1.4291 C   0  0  0  0  0  0  0  0  0  0  0  0
   44.1791   16.3482    1.1400 C   0  0  0  0  0  0  0  0  0  0  0  0
   43.6830   16.5856   -0.1096 N   0  0  0  0  0  0  0  0  0  0  0  0
   43.8633   17.3532    1.9902 N   0  0  0  0  0  0  0  0  0  0  0  0
   46.2493   11.3909    0.9921 C   0  0  0  0  0  0  0  0  0  0  0  0
   47.5557   10.8715    1.0398 C   0  0  0  0  0  0  0  0  0  0  0  0
   47.8422    9.5467    0.6494 C   0  0  0  0  0  0  0  0  0  0  0  0
   46.7883    8.7381    0.1831 C   0  0  0  0  0  0  0  0  0  0  0  0
   45.4807    9.2386    0.0940 C   0  0  0  0  0  0  0  0  0  0  0  0
   45.2202   10.5543    0.5043 C   0  0  0  0  0  0  0  0  0  0  0  0
   47.5310   12.9242    3.8913 Br  0  0  0  0  0  0  0  0  0  0  0  0
   46.0215   15.7825    3.5575 O   0  0  0  0  0  0  0  0  0  0  0  0
   47.3044   16.4568    3.4559 C   0  0  0  0  0  0  0  0  0  0  0  0
   47.6935   17.2391    4.7591 C   0  0  0  0  0  0  0  0  0  0  0  0
   46.8796   17.2339    5.7252 O   0  0  0  0  0  0  0  0  0  0  0  0
   48.8457   17.7761    4.7215 O   0  0  0  0  0  0  0  0  0  0  0  0
   49.1503    9.0994    0.7629 N   0  0  0  0  0  0  0  0  0  0  0  0
   49.5654    7.8990    1.4862 C   0  0  0  0  0  0  0  0  0  0  0  0
   49.0058    7.8051    2.9047 C   0  0  0  0  0  0  0  0  0  0  0  0
   49.3402    6.4297    3.4835 C   0  0  0  0  0  0  0  0  0  0  0  0
   50.7772    6.0924    3.3859 N   0  0  0  0  0  0  0  0  0  0  0  0
   51.5678    6.5425    2.2204 C   0  0  0  0  0  0  0  0  0  0  0  0
   51.0901    7.8675    1.6156 C   0  0  0  0  0  0  0  0  0  0  0  0
   51.4635    5.1078    4.5851 S   0  0  0  0  0  0  0  0  0  0  0  0
   50.6441    5.2173    5.7490 O   0  0  0  0  0  0  0  0  0  0  0  0
   52.8750    5.4638    4.6254 O   0  0  0  0  0  0  0  0  0  0  0  0
   51.4111    3.3868    4.0424 C   0  0  0  0  0  0  0  0  0  0  0  0
   51.9431    2.4803    5.1512 C   0  0  0  0  0  0  0  0  0  0  0  0
   51.0566    1.9684    6.1221 C   0  0  0  0  0  0  0  0  0  0  0  0
   51.5230    1.1239    7.1405 C   0  0  0  0  0  0  0  0  0  0  0  0
   52.8809    0.7858    7.1945 C   0  0  0  0  0  0  0  0  0  0  0  0
   53.7770    1.2855    6.2406 C   0  0  0  0  0  0  0  0  0  0  0  0
   53.3094    2.1317    5.2212 C   0  0  0  0  0  0  0  0  0  0  0  0
   43.1680   18.2443    1.2429 N   0  0  0  0  0  0  0  0  0  0  0  0
   43.0730   17.7905   -0.0236 N   0  0  0  0  0  0  0  0  0  0  0  0
   48.3708   11.4915    1.4177 H   0  0  0  0  0  0  0  0  0  0  0  0
   46.9821    7.7171   -0.1406 H   0  0  0  0  0  0  0  0  0  0  0  0
   44.6637    8.6189   -0.2829 H   0  0  0  0  0  0  0  0  0  0  0  0
   44.1985   10.9351    0.4540 H   0  0  0  0  0  0  0  0  0  0  0  0
   47.2698   17.1751    2.6285 H   0  0  0  0  0  0  0  0  0  0  0  0
   48.0986   15.7279    3.2570 H   0  0  0  0  0  0  0  0  0  0  0  0
   49.8571    9.6660    0.2982 H   0  0  0  0  0  0  0  0  0  0  0  0
   49.2423    7.0259    0.9121 H   0  0  0  0  0  0  0  0  0  0  0  0
   47.9175    7.9414    2.9044 H   0  0  0  0  0  0  0  0  0  0  0  0
   49.4230    8.5951    3.5475 H   0  0  0  0  0  0  0  0  0  0  0  0
   48.7548    5.6659    2.9632 H   0  0  0  0  0  0  0  0  0  0  0  0
   49.0313    6.4241    4.5370 H   0  0  0  0  0  0  0  0  0  0  0  0
   51.5376    5.7724    1.4440 H   0  0  0  0  0  0  0  0  0  0  0  0
   52.6152    6.6752    2.5193 H   0  0  0  0  0  0  0  0  0  0  0  0
   51.4347    8.7086    2.2378 H   0  0  0  0  0  0  0  0  0  0  0  0
   51.5527    8.0085    0.6283 H   0  0  0  0  0  0  0  0  0  0  0  0
   52.0349    3.2710    3.1405 H   0  0  0  0  0  0  0  0  0  0  0  0
   50.3758    3.1278    3.8150 H   0  0  0  0  0  0  0  0  0  0  0  0
   49.9975    2.2332    6.0889 H   0  0  0  0  0  0  0  0  0  0  0  0
   50.8293    0.7361    7.8885 H   0  0  0  0  0  0  0  0  0  0  0  0
   53.2420    0.1315    7.9875 H   0  0  0  0  0  0  0  0  0  0  0  0
   54.8349    1.0196    6.2929 H   0  0  0  0  0  0  0  0  0  0  0  0
   54.0145    2.5200    4.4834 H   0  0  0  0  0  0  0  0  0  0  0  0
  1  2  1  0  0  0  0
  1  5  1  0  0  0  0
  2  3  2  0  0  0  0
  2  6  1  0  0  0  0
  3  4  1  0  0  0  0
  3 16  1  0  0  0  0
  4  5  2  0  0  0  0
  4 15  1  0  0  0  0
  5  9  1  0  0  0  0
  6  7  1  0  0  0  0
  6  8  2  0  0  0  0
  7 39  1  0  0  0  0
  8 38  1  0  0  0  0
  9 10  2  0  0  0  0
  9 14  1  0  0  0  0
 10 11  1  0  0  0  0
 10 40  1  0  0  0  0
 11 12  2  0  0  0  0
 11 21  1  0  0  0  0
 12 13  1  0  0  0  0
 12 41  1  0  0  0  0
 13 14  2  0  0  0  0
 13 42  1  0  0  0  0
 14 43  1  0  0  0  0
 16 17  1  0  0  0  0
 17 18  1  0  0  0  0
 17 44  1  0  0  0  0
 17 45  1  0  0  0  0
 18 19  2  0  0  0  0
 18 20  1  0  0  0  0
 21 22  1  0  0  0  0
 21 46  1  0  0  0  0
 22 23  1  0  0  0  0
 22 27  1  0  0  0  0
 22 47  1  0  0  0  0
 23 24  1  0  0  0  0
 23 48  1  0  0  0  0
 23 49  1  0  0  0  0
 24 25  1  0  0  0  0
 24 50  1  0  0  0  0
 24 51  1  0  0  0  0
 25 26  1  0  0  0  0
 25 28  1  0  0  0  0
 26 27  1  0  0  0  0
 26 52  1  0  0  0  0
 26 53  1  0  0  0  0
 27 54  1  0  0  0  0
 27 55  1  0  0  0  0
 28 29  2  0  0  0  0
 28 30  2  0  0  0  0
 28 31  1  0  0  0  0
 31 32  1  0  0  0  0
 31 56  1  0  0  0  0
 31 57  1  0  0  0  0
 32 33  2  0  0  0  0
 32 37  1  0  0  0  0
 33 34  1  0  0  0  0
 33 58  1  0  0  0  0
 34 35  2  0  0  0  0
 34 59  1  0  0  0  0
 35 36  1  0  0  0  0
 35 60  1  0  0  0  0
 36 37  2  0  0  0  0
 36 61  1  0  0  0  0
 37 62  1  0  0  0  0
 38 39  2  0  0  0  0
M  END
$$$$
