930
 OpenBabel04051920383D

 57 61  0  0  1  0  0  0  0  0999 V2000
    7.7167    5.6110   19.5195 F   0  0  0  0  0  0  0  0  0  0  0  0
    7.6076    4.3289   19.8922 C   0  0  0  0  0  0  0  0  0  0  0  0
    6.8204    3.9441   20.9840 C   0  0  0  0  0  0  0  0  0  0  0  0
    6.7238    2.5791   21.2690 C   0  0  0  0  0  0  0  0  0  0  0  0
    7.3962    1.6293   20.4848 C   0  0  0  0  0  0  0  0  0  0  0  0
    8.1647    2.0211   19.3811 C   0  0  0  0  0  0  0  0  0  0  0  0
    8.8633    0.9815   18.5459 C   0  0  2  0  0  0  0  0  0  0  0  0
   10.0933    1.4848   17.8030 C   0  0  0  0  0  0  0  0  0  0  0  0
    9.6209    1.8593   16.4048 C   0  0  0  0  0  0  0  0  0  0  0  0
    8.2029    1.3453   16.2573 C   0  0  0  0  0  0  0  0  0  0  0  0
    7.9732    0.4861   17.4516 N   0  3  0  0  0  0  0  0  0  0  0  0
    8.2400    3.3870   19.0843 C   0  0  0  0  0  0  0  0  0  0  0  0
    6.1408    4.8822   21.7972 N   0  0  0  0  0  0  0  0  0  0  0  0
    6.7349    6.0491   22.3079 C   0  0  0  0  0  0  0  0  0  0  0  0
    7.8547    6.4476   22.0810 O   0  0  0  0  0  0  0  0  0  0  0  0
    5.7493    6.6831   23.2833 C   0  0  2  0  0  0  0  0  0  0  0  0
    4.4169    6.0793   22.8550 C   0  0  0  0  0  0  0  0  0  0  0  0
    4.7839    4.7280   22.2535 C   0  0  0  0  0  0  0  0  0  0  0  0
    5.7360    8.1286   23.1545 N   0  0  0  0  0  0  0  0  0  0  0  0
    6.2451    9.1374   24.3657 S   0  0  0  0  0  0  0  0  0  0  0  0
    6.2035   10.4629   23.7626 O   0  0  0  0  0  0  0  0  0  0  0  0
    5.4834    8.8452   25.5549 O   0  0  0  0  0  0  0  0  0  0  0  0
    7.9393    8.7681   24.6675 C   0  0  0  0  0  0  0  0  0  0  0  0
    8.8938    9.2296   23.7583 C   0  0  0  0  0  0  0  0  0  0  0  0
   10.2443    9.0188   24.0072 C   0  0  0  0  0  0  0  0  0  0  0  0
   10.6455    8.3642   25.1737 C   0  0  0  0  0  0  0  0  0  0  0  0
    9.6868    7.9137   26.1246 C   0  0  0  0  0  0  0  0  0  0  0  0
    8.3238    8.1322   25.8558 C   0  0  0  0  0  0  0  0  0  0  0  0
   12.0033    8.1486   25.4175 C   0  0  0  0  0  0  0  0  0  0  0  0
   12.4104    7.5039   26.5822 C   0  0  0  0  0  0  0  0  0  0  0  0
   14.0965    7.2696   26.8281 Cl  0  0  0  0  0  0  0  0  0  0  0  0
   11.4791    7.0572   27.5208 C   0  0  0  0  0  0  0  0  0  0  0  0
   10.1160    7.2653   27.2919 C   0  0  0  0  0  0  0  0  0  0  0  0
    6.1771    2.2408   22.1454 H   0  0  0  0  0  0  0  0  0  0  0  0
    7.3216    0.5787   20.7560 H   0  0  0  0  0  0  0  0  0  0  0  0
    9.1242    0.1222   19.1748 H   0  0  0  0  0  0  0  0  0  0  0  0
   10.8554    0.7006   17.7462 H   0  0  0  0  0  0  0  0  0  0  0  0
   10.5580    2.3374   18.3105 H   0  0  0  0  0  0  0  0  0  0  0  0
   10.2706    1.4178   15.6432 H   0  0  0  0  0  0  0  0  0  0  0  0
    9.6421    2.9451   16.2597 H   0  0  0  0  0  0  0  0  0  0  0  0
    8.0610    0.7362   15.3613 H   0  0  0  0  0  0  0  0  0  0  0  0
    7.4661    2.1546   16.2869 H   0  0  0  0  0  0  0  0  0  0  0  0
    8.1975   -0.4932   17.2340 H   0  0  0  0  0  0  0  0  0  0  0  0
    8.8061    3.7553   18.2342 H   0  0  0  0  0  0  0  0  0  0  0  0
    5.9855    6.3855   24.3096 H   0  0  0  0  0  0  0  0  0  0  0  0
    3.9102    6.7096   22.1119 H   0  0  0  0  0  0  0  0  0  0  0  0
    3.7385    5.9641   23.7067 H   0  0  0  0  0  0  0  0  0  0  0  0
    4.7089    3.9325   22.9998 H   0  0  0  0  0  0  0  0  0  0  0  0
    4.1330    4.4962   21.4017 H   0  0  0  0  0  0  0  0  0  0  0  0
    5.4940    8.5726   22.2715 H   0  0  0  0  0  0  0  0  0  0  0  0
    8.5751    9.7461   22.8553 H   0  0  0  0  0  0  0  0  0  0  0  0
   10.9772    9.3701   23.2817 H   0  0  0  0  0  0  0  0  0  0  0  0
    7.5713    7.8137   26.5755 H   0  0  0  0  0  0  0  0  0  0  0  0
   12.7457    8.4822   24.6976 H   0  0  0  0  0  0  0  0  0  0  0  0
   11.8035    6.5512   28.4264 H   0  0  0  0  0  0  0  0  0  0  0  0
    9.3988    6.9176   28.0334 H   0  0  0  0  0  0  0  0  0  0  0  0
    6.9874    0.5129   17.7443 H   0  0  0  0  0  0  0  0  0  0  0  0
  1  2  1  0  0  0  0
  2  3  2  0  0  0  0
  2 12  1  0  0  0  0
  3  4  1  0  0  0  0
  3 13  1  0  0  0  0
  4  5  2  0  0  0  0
  4 34  1  0  0  0  0
  5  6  1  0  0  0  0
  5 35  1  0  0  0  0
  6  7  1  0  0  0  0
  6 12  2  0  0  0  0
  7  8  1  0  0  0  0
  7 11  1  0  0  0  0
  7 36  1  1  0  0  0
  8  9  1  0  0  0  0
  8 37  1  0  0  0  0
  8 38  1  0  0  0  0
  9 10  1  0  0  0  0
  9 39  1  0  0  0  0
  9 40  1  0  0  0  0
 10 11  1  0  0  0  0
 10 41  1  0  0  0  0
 10 42  1  0  0  0  0
 11 43  1  0  0  0  0
 11 57  1  0  0  0  0
 12 44  1  0  0  0  0
 13 14  1  0  0  0  0
 13 18  1  0  0  0  0
 14 15  2  0  0  0  0
 14 16  1  0  0  0  0
 16 17  1  0  0  0  0
 16 19  1  0  0  0  0
 16 45  1  1  0  0  0
 17 18  1  0  0  0  0
 17 46  1  0  0  0  0
 17 47  1  0  0  0  0
 18 48  1  0  0  0  0
 18 49  1  0  0  0  0
 19 20  1  0  0  0  0
 19 50  1  0  0  0  0
 20 21  2  0  0  0  0
 20 22  2  0  0  0  0
 20 23  1  0  0  0  0
 23 24  2  0  0  0  0
 23 28  1  0  0  0  0
 24 25  1  0  0  0  0
 24 51  1  0  0  0  0
 25 26  2  0  0  0  0
 25 52  1  0  0  0  0
 26 27  1  0  0  0  0
 26 29  1  0  0  0  0
 27 28  2  0  0  0  0
 27 33  1  0  0  0  0
 28 53  1  0  0  0  0
 29 30  2  0  0  0  0
 29 54  1  0  0  0  0
 30 31  1  0  0  0  0
 30 32  1  0  0  0  0
 32 33  2  0  0  0  0
 32 55  1  0  0  0  0
 33 56  1  0  0  0  0
M  CHG  1  11   1
M  END
$$$$
