931
 OpenBabel04051920383D

 57 61  0  0  1  0  0  0  0  0999 V2000
    6.5302    2.0968   21.7695 F   0  0  0  0  0  0  0  0  0  0  0  0
    7.0475    2.7499   20.7223 C   0  0  0  0  0  0  0  0  0  0  0  0
    7.7326    2.0024   19.7594 C   0  0  0  0  0  0  0  0  0  0  0  0
    8.6584   -0.4111   16.7134 C   0  0  0  0  0  0  0  0  0  0  0  0
    8.1202    0.9679   16.8310 N   0  3  0  0  0  0  0  0  0  0  0  0
    8.3406    2.6307   18.6608 C   0  0  0  0  0  0  0  0  0  0  0  0
    8.2443    4.0270   18.5645 C   0  0  0  0  0  0  0  0  0  0  0  0
    7.5894    4.7733   19.5576 C   0  0  0  0  0  0  0  0  0  0  0  0
    6.9708    4.1424   20.6404 C   0  0  0  0  0  0  0  0  0  0  0  0
    6.2798    4.8987   21.6134 N   0  0  0  0  0  0  0  0  0  0  0  0
    6.8272    6.0079   22.2605 C   0  0  0  0  0  0  0  0  0  0  0  0
    7.9288    6.4977   22.0597 O   0  0  0  0  0  0  0  0  0  0  0  0
    5.0145    4.5103   22.1854 C   0  0  0  0  0  0  0  0  0  0  0  0
    4.5378    5.7515   22.9220 C   0  0  0  0  0  0  0  0  0  0  0  0
    5.8222    6.4793   23.3042 C   0  0  2  0  0  0  0  0  0  0  0  0
    5.6347    7.9166   23.2302 N   0  0  0  0  0  0  0  0  0  0  0  0
    6.0931    8.9135   24.4787 S   0  0  0  0  0  0  0  0  0  0  0  0
   10.1565    0.9174   18.1136 C   0  0  0  0  0  0  0  0  0  0  0  0
    5.3933    8.4475   25.6539 O   0  0  0  0  0  0  0  0  0  0  0  0
    5.9311   10.2567   23.9735 O   0  0  0  0  0  0  0  0  0  0  0  0
    7.8289    8.6115   24.7107 C   0  0  0  0  0  0  0  0  0  0  0  0
   10.0092   -0.4059   17.3887 C   0  0  0  0  0  0  0  0  0  0  0  0
    8.2728    7.9127   25.8402 C   0  0  0  0  0  0  0  0  0  0  0  0
    8.7397    9.1453   23.8002 C   0  0  0  0  0  0  0  0  0  0  0  0
   10.1116    8.9570   24.0070 C   0  0  0  0  0  0  0  0  0  0  0  0
   10.5769    8.2479   25.1305 C   0  0  0  0  0  0  0  0  0  0  0  0
   11.9524    8.0590   25.3377 C   0  0  0  0  0  0  0  0  0  0  0  0
   12.4041    7.3607   26.4574 C   0  0  0  0  0  0  0  0  0  0  0  0
   14.0970    7.1369   26.6829 Cl  0  0  0  0  0  0  0  0  0  0  0  0
    9.6518    7.7241   26.0581 C   0  0  0  0  0  0  0  0  0  0  0  0
   10.1308    7.0315   27.1878 C   0  0  0  0  0  0  0  0  0  0  0  0
   11.5058    6.8481   27.3792 C   0  0  0  0  0  0  0  0  0  0  0  0
    9.0636    1.8441   17.5938 C   0  0  1  0  0  0  0  0  0  0  0  0
    7.7921    0.9261   19.9087 H   0  0  0  0  0  0  0  0  0  0  0  0
    8.7272   -0.6540   15.6490 H   0  0  0  0  0  0  0  0  0  0  0  0
    7.9495   -1.0843   17.2045 H   0  0  0  0  0  0  0  0  0  0  0  0
    7.9534    1.3746   15.9016 H   0  0  0  0  0  0  0  0  0  0  0  0
    8.6863    4.5591   17.7211 H   0  0  0  0  0  0  0  0  0  0  0  0
    7.5403    5.8584   19.4480 H   0  0  0  0  0  0  0  0  0  0  0  0
    5.1368    3.6717   22.8764 H   0  0  0  0  0  0  0  0  0  0  0  0
    4.3141    4.2374   21.3885 H   0  0  0  0  0  0  0  0  0  0  0  0
    3.9409    5.4970   23.8044 H   0  0  0  0  0  0  0  0  0  0  0  0
    3.9004    6.3630   22.2698 H   0  0  0  0  0  0  0  0  0  0  0  0
    6.1537    6.1539   24.2945 H   0  0  0  0  0  0  0  0  0  0  0  0
    5.3070    8.3823   22.3866 H   0  0  0  0  0  0  0  0  0  0  0  0
   11.1439    1.3508   17.9114 H   0  0  0  0  0  0  0  0  0  0  0  0
   10.1101    0.7634   19.1964 H   0  0  0  0  0  0  0  0  0  0  0  0
   10.8064   -0.5370   16.6487 H   0  0  0  0  0  0  0  0  0  0  0  0
   10.0898   -1.2435   18.0907 H   0  0  0  0  0  0  0  0  0  0  0  0
    7.5539    7.5258   26.5589 H   0  0  0  0  0  0  0  0  0  0  0  0
    8.4023    9.7022   22.9313 H   0  0  0  0  0  0  0  0  0  0  0  0
   10.8123    9.3729   23.2888 H   0  0  0  0  0  0  0  0  0  0  0  0
   12.6717    8.4615   24.6268 H   0  0  0  0  0  0  0  0  0  0  0  0
    9.4421    6.6289   27.9286 H   0  0  0  0  0  0  0  0  0  0  0  0
   11.8633    6.3118   28.2604 H   0  0  0  0  0  0  0  0  0  0  0  0
    9.4957    2.5241   16.8490 H   0  0  0  0  0  0  0  0  0  0  0  0
    7.2012    0.9500   17.2927 H   0  0  0  0  0  0  0  0  0  0  0  0
  1  2  1  0  0  0  0
  2  3  2  0  0  0  0
  2  9  1  0  0  0  0
  3  6  1  0  0  0  0
  3 34  1  0  0  0  0
  4  5  1  0  0  0  0
  4 22  1  0  0  0  0
  4 35  1  0  0  0  0
  4 36  1  0  0  0  0
  5 33  1  0  0  0  0
  5 37  1  0  0  0  0
  5 57  1  0  0  0  0
  6  7  2  0  0  0  0
  6 33  1  0  0  0  0
  7  8  1  0  0  0  0
  7 38  1  0  0  0  0
  8  9  2  0  0  0  0
  8 39  1  0  0  0  0
  9 10  1  0  0  0  0
 10 11  1  0  0  0  0
 10 13  1  0  0  0  0
 11 12  2  0  0  0  0
 11 15  1  0  0  0  0
 13 14  1  0  0  0  0
 13 40  1  0  0  0  0
 13 41  1  0  0  0  0
 14 15  1  0  0  0  0
 14 42  1  0  0  0  0
 14 43  1  0  0  0  0
 15 16  1  0  0  0  0
 15 44  1  1  0  0  0
 16 17  1  0  0  0  0
 16 45  1  0  0  0  0
 17 19  2  0  0  0  0
 17 20  2  0  0  0  0
 17 21  1  0  0  0  0
 18 22  1  0  0  0  0
 18 33  1  0  0  0  0
 18 46  1  0  0  0  0
 18 47  1  0  0  0  0
 21 23  2  0  0  0  0
 21 24  1  0  0  0  0
 22 48  1  0  0  0  0
 22 49  1  0  0  0  0
 23 30  1  0  0  0  0
 23 50  1  0  0  0  0
 24 25  2  0  0  0  0
 24 51  1  0  0  0  0
 25 26  1  0  0  0  0
 25 52  1  0  0  0  0
 26 27  2  0  0  0  0
 26 30  1  0  0  0  0
 27 28  1  0  0  0  0
 27 53  1  0  0  0  0
 28 29  1  0  0  0  0
 28 32  2  0  0  0  0
 30 31  2  0  0  0  0
 31 32  1  0  0  0  0
 31 54  1  0  0  0  0
 32 55  1  0  0  0  0
 33 56  1  6  0  0  0
M  CHG  1   5   1
M  END
$$$$
