982
 OpenBabel04051917223D

 22 23  0  0  0  0  0  0  0  0999 V2000
   46.4581   12.2901    2.9433 C   0  0  0  0  0  0  0  0  0  0  0  0
   46.4927   11.0308    2.3377 C   0  0  0  0  0  0  0  0  0  0  0  0
   45.8363   10.8617    1.1303 C   0  0  0  0  0  0  0  0  0  0  0  0
   45.1549   11.8136    0.4702 N   0  0  0  0  0  0  0  0  0  0  0  0
   45.1577   13.0224    1.0900 C   0  0  0  0  0  0  0  0  0  0  0  0
   45.7668   13.3364    2.2936 C   0  0  0  0  0  0  0  0  0  0  0  0
   44.3568   14.3375    0.3904 S   0  0  0  0  0  0  0  0  0  0  0  0
   44.7807   15.3906    1.6886 C   0  0  0  0  0  0  0  0  0  0  0  0
   45.5476   14.7283    2.6333 C   0  0  0  0  0  0  0  0  0  0  0  0
   44.3142   16.8097    1.7008 C   0  0  0  0  0  0  0  0  0  0  0  0
   43.7501   17.2235    0.6277 O   0  0  0  0  0  0  0  0  0  0  0  0
   45.9829   15.2668    3.7996 O   0  0  0  0  0  0  0  0  0  0  0  0
   47.1986   16.0253    3.6381 C   0  0  0  0  0  0  0  0  0  0  0  0
   47.4790   16.9561    4.8451 C   0  0  0  0  0  0  0  0  0  0  0  0
   48.5769   17.6009    4.7486 O   0  0  0  0  0  0  0  0  0  0  0  0
   44.4885   17.5219    2.7269 O   0  0  0  0  0  0  0  0  0  0  0  0
   46.7069   16.9091    5.8466 O   0  0  0  0  0  0  0  0  0  0  0  0
   46.9527   12.4704    3.8915 H   0  0  0  0  0  0  0  0  0  0  0  0
   47.0192   10.2072    2.7992 H   0  0  0  0  0  0  0  0  0  0  0  0
   45.8447    9.8937    0.6363 H   0  0  0  0  0  0  0  0  0  0  0  0
   47.1883   16.6222    2.7185 H   0  0  0  0  0  0  0  0  0  0  0  0
   48.0347   15.3144    3.5812 H   0  0  0  0  0  0  0  0  0  0  0  0
  1  2  2  0  0  0  0
  1  6  1  0  0  0  0
  1 18  1  0  0  0  0
  2  3  1  0  0  0  0
  2 19  1  0  0  0  0
  3  4  2  0  0  0  0
  3 20  1  0  0  0  0
  4  5  1  0  0  0  0
  5  6  2  0  0  0  0
  5  7  1  0  0  0  0
  6  9  1  0  0  0  0
  7  8  1  0  0  0  0
  8  9  2  0  0  0  0
  8 10  1  0  0  0  0
  9 12  1  0  0  0  0
 10 11  2  0  0  0  0
 10 16  1  0  0  0  0
 12 13  1  0  0  0  0
 13 14  1  0  0  0  0
 13 21  1  0  0  0  0
 13 22  1  0  0  0  0
 14 15  2  0  0  0  0
 14 17  1  0  0  0  0
M  END
$$$$
