A1A
 OpenBabel04051917273D

 83 86  0  0  1  0  0  0  0  0999 V2000
   11.1983   23.5714    3.2058 C   0  0  0  0  0  0  0  0  0  0  0  0
   10.9451   24.6663    2.3466 C   0  0  0  0  0  0  0  0  0  0  0  0
    9.6571   24.8797    1.8099 C   0  0  0  0  0  0  0  0  0  0  0  0
    8.6054   24.0016    2.1245 C   0  0  0  0  0  0  0  0  0  0  0  0
    8.8382   22.9073    2.9729 C   0  0  0  0  0  0  0  0  0  0  0  0
   10.1263   22.6937    3.5107 C   0  0  0  0  0  0  0  0  0  0  0  0
   16.3174   22.4900    8.1244 C   0  0  0  0  0  0  0  0  0  0  0  0
   17.6071   22.0123    8.4681 C   0  0  0  0  0  0  0  0  0  0  0  0
   17.7688   20.9653    9.3950 C   0  0  0  0  0  0  0  0  0  0  0  0
   16.6424   20.3934   10.0067 C   0  0  0  0  0  0  0  0  0  0  0  0
   15.3571   20.8699    9.6958 C   0  0  0  0  0  0  0  0  0  0  0  0
   15.1971   21.9218    8.7680 C   0  0  0  0  0  0  0  0  0  0  0  0
   16.1993   23.6386    7.1137 C   0  0  0  0  0  0  0  0  0  0  0  0
   19.9880   18.2470    7.3154 C   0  0  0  0  0  0  0  0  0  0  0  0
   13.9599   23.7267    6.1112 C   0  0  0  0  0  0  0  0  0  0  0  0
   19.1080   20.0969    5.4626 O   0  0  0  0  0  0  0  0  0  0  0  0
   17.0499   19.1668    5.4375 N   0  0  0  0  0  0  0  0  0  0  0  0
   12.5973   23.3608    3.8502 C   0  0  0  0  0  0  0  0  0  0  0  0
   13.4279   25.5402    4.5654 O   0  0  0  0  0  0  0  0  0  0  0  0
   18.6407   18.2777    6.7728 O   0  0  0  0  0  0  0  0  0  0  0  0
   11.6299   24.4957    5.9330 C   0  0  0  0  0  0  0  0  0  0  0  0
   11.2915   23.6878    6.7843 O   0  0  0  0  0  0  0  0  0  0  0  0
   10.8590   25.6065    5.6725 N   0  0  0  0  0  0  0  0  0  0  0  0
    9.6641   25.8900    6.4550 C   0  0  1  0  0  0  0  0  0  0  0  0
    9.8866   26.7167    7.7175 C   0  0  0  0  0  0  0  0  0  0  0  0
    8.7681   27.5524    7.9417 C   0  0  0  0  0  0  0  0  0  0  0  0
   10.9663   26.7049    8.6093 C   0  0  0  0  0  0  0  0  0  0  0  0
   10.9321   27.5665    9.7252 C   0  0  0  0  0  0  0  0  0  0  0  0
    9.8184   28.4123    9.9417 C   0  0  0  0  0  0  0  0  0  0  0  0
    8.5720   26.7342    5.7146 C   0  0  2  0  0  0  0  0  0  0  0  0
    9.1091   27.8479    4.9678 O   0  0  0  0  0  0  0  0  0  0  0  0
   18.3541   19.2695    5.8676 C   0  0  0  0  0  0  0  0  0  0  0  0
    8.7242   28.4050    9.0477 C   0  0  0  0  0  0  0  0  0  0  0  0
    7.7278   27.3658    6.8470 C   0  0  0  0  0  0  0  0  0  0  0  0
   16.4616   20.0661    4.4290 C   0  0  1  0  0  0  0  0  0  0  0  0
   15.8768   19.1744    3.3012 C   0  0  0  0  0  0  0  0  0  0  0  0
   16.9574   18.2766    2.6613 C   0  0  0  0  0  0  0  0  0  0  0  0
   12.9209   24.2866    5.0592 C   0  0  2  0  0  0  0  0  0  0  0  0
   15.2349   19.9692    2.1737 C   0  0  0  0  0  0  0  0  0  0  0  0
   15.4255   21.0206    5.1597 C   0  0  0  0  0  0  0  0  0  0  0  0
   15.3853   23.4678    5.8672 N   0  0  0  0  0  0  0  0  0  0  0  0
   14.4510   20.5925    5.7583 O   0  0  0  0  0  0  0  0  0  0  0  0
   15.7696   22.3766    5.0403 N   0  0  0  0  0  0  0  0  0  0  0  0
   11.7501   25.3575    2.0846 H   0  0  0  0  0  0  0  0  0  0  0  0
    9.4724   25.7281    1.1418 H   0  0  0  0  0  0  0  0  0  0  0  0
    7.6077   24.1686    1.7074 H   0  0  0  0  0  0  0  0  0  0  0  0
    8.0197   22.2193    3.2154 H   0  0  0  0  0  0  0  0  0  0  0  0
   10.2874   21.8379    4.1773 H   0  0  0  0  0  0  0  0  0  0  0  0
   18.4935   22.4508    7.9960 H   0  0  0  0  0  0  0  0  0  0  0  0
   18.7710   20.5982    9.6343 H   0  0  0  0  0  0  0  0  0  0  0  0
   16.7657   19.5795   10.7253 H   0  0  0  0  0  0  0  0  0  0  0  0
   14.4778   20.4231   10.1726 H   0  0  0  0  0  0  0  0  0  0  0  0
   14.1889   22.2761    8.5380 H   0  0  0  0  0  0  0  0  0  0  0  0
   17.2181   23.9241    6.8012 H   0  0  0  0  0  0  0  0  0  0  0  0
   15.8032   24.5170    7.6538 H   0  0  0  0  0  0  0  0  0  0  0  0
   20.0533   17.4052    8.0291 H   0  0  0  0  0  0  0  0  0  0  0  0
   20.2164   19.1696    7.8592 H   0  0  0  0  0  0  0  0  0  0  0  0
   20.7275   18.0783    6.5254 H   0  0  0  0  0  0  0  0  0  0  0  0
   13.5482   22.8143    6.5222 H   0  0  0  0  0  0  0  0  0  0  0  0
   13.9514   24.4940    6.9126 H   0  0  0  0  0  0  0  0  0  0  0  0
   16.4653   18.4484    5.8226 H   0  0  0  0  0  0  0  0  0  0  0  0
   13.3528   23.5195    3.0584 H   0  0  0  0  0  0  0  0  0  0  0  0
   12.6762   22.3083    4.1612 H   0  0  0  0  0  0  0  0  0  0  0  0
   12.7476   25.9212    3.9950 H   0  0  0  0  0  0  0  0  0  0  0  0
   11.1526   26.2576    4.9704 H   0  0  0  0  0  0  0  0  0  0  0  0
    9.2048   24.9379    6.7451 H   0  0  0  0  0  0  0  0  0  0  0  0
   11.8247   26.0494    8.4425 H   0  0  0  0  0  0  0  0  0  0  0  0
   11.7714   27.5811   10.4284 H   0  0  0  0  0  0  0  0  0  0  0  0
    9.8059   29.0762   10.8129 H   0  0  0  0  0  0  0  0  0  0  0  0
    7.9753   26.1160    5.0198 H   0  0  0  0  0  0  0  0  0  0  0  0
    9.7513   27.5197    4.3247 H   0  0  0  0  0  0  0  0  0  0  0  0
    7.8678   29.0609    9.2152 H   0  0  0  0  0  0  0  0  0  0  0  0
    7.2937   28.3210    6.5331 H   0  0  0  0  0  0  0  0  0  0  0  0
    6.9344   26.6805    7.1622 H   0  0  0  0  0  0  0  0  0  0  0  0
   17.2425   20.7006    4.0024 H   0  0  0  0  0  0  0  0  0  0  0  0
   15.1168   18.5176    3.7406 H   0  0  0  0  0  0  0  0  0  0  0  0
   16.5233   17.6583    1.8614 H   0  0  0  0  0  0  0  0  0  0  0  0
   17.4033   17.6003    3.3991 H   0  0  0  0  0  0  0  0  0  0  0  0
   17.7601   18.8830    2.2190 H   0  0  0  0  0  0  0  0  0  0  0  0
   14.4542   20.6240    2.5620 H   0  0  0  0  0  0  0  0  0  0  0  0
   14.7809   19.2862    1.4410 H   0  0  0  0  0  0  0  0  0  0  0  0
   15.9847   20.5757    1.6523 H   0  0  0  0  0  0  0  0  0  0  0  0
   16.3497   22.6088    4.2558 H   0  0  0  0  0  0  0  0  0  0  0  0
  1  2  2  0  0  0  0
  1  6  1  0  0  0  0
  1 18  1  0  0  0  0
  2  3  1  0  0  0  0
  2 44  1  0  0  0  0
  3  4  2  0  0  0  0
  3 45  1  0  0  0  0
  4  5  1  0  0  0  0
  4 46  1  0  0  0  0
  5  6  2  0  0  0  0
  5 47  1  0  0  0  0
  6 48  1  0  0  0  0
  7  8  2  0  0  0  0
  7 12  1  0  0  0  0
  7 13  1  0  0  0  0
  8  9  1  0  0  0  0
  8 49  1  0  0  0  0
  9 10  2  0  0  0  0
  9 50  1  0  0  0  0
 10 11  1  0  0  0  0
 10 51  1  0  0  0  0
 11 12  2  0  0  0  0
 11 52  1  0  0  0  0
 12 53  1  0  0  0  0
 13 41  1  0  0  0  0
 13 54  1  0  0  0  0
 13 55  1  0  0  0  0
 14 20  1  0  0  0  0
 14 56  1  0  0  0  0
 14 57  1  0  0  0  0
 14 58  1  0  0  0  0
 15 41  1  0  0  0  0
 15 59  1  0  0  0  0
 15 60  1  0  0  0  0
 16 32  2  0  0  0  0
 17 32  1  0  0  0  0
 17 35  1  0  0  0  0
 17 61  1  0  0  0  0
 18 38  1  0  0  0  0
 18 62  1  0  0  0  0
 18 63  1  0  0  0  0
 19 38  1  0  0  0  0
 19 64  1  0  0  0  0
 20 32  1  0  0  0  0
 21 22  2  0  0  0  0
 21 23  1  0  0  0  0
 21 38  1  0  0  0  0
 23 24  1  0  0  0  0
 23 65  1  0  0  0  0
 24 25  1  0  0  0  0
 24 30  1  0  0  0  0
 24 66  1  1  0  0  0
 25 26  2  0  0  0  0
 25 27  1  0  0  0  0
 26 33  1  0  0  0  0
 26 34  1  0  0  0  0
 27 28  2  0  0  0  0
 27 67  1  0  0  0  0
 28 29  1  0  0  0  0
 28 68  1  0  0  0  0
 29 33  2  0  0  0  0
 29 69  1  0  0  0  0
 30 31  1  0  0  0  0
 30 34  1  0  0  0  0
 30 70  1  6  0  0  0
 31 71  1  0  0  0  0
 33 72  1  0  0  0  0
 34 73  1  0  0  0  0
 34 74  1  0  0  0  0
 35 36  1  0  0  0  0
 35 40  1  0  0  0  0
 35 75  1  6  0  0  0
 36 37  1  0  0  0  0
 36 39  1  0  0  0  0
 36 76  1  0  0  0  0
 37 77  1  0  0  0  0
 37 78  1  0  0  0  0
 37 79  1  0  0  0  0
 38 15  1  1  0  0  0
 39 80  1  0  0  0  0
 39 81  1  0  0  0  0
 39 82  1  0  0  0  0
 40 42  2  0  0  0  0
 40 43  1  0  0  0  0
 41 43  1  0  0  0  0
 43 83  1  0  0  0  0
M  END
$$$$
