A91
 OpenBabel04051919023D

 39 41  0  0  0  0  0  0  0  0999 V2000
    4.7333   29.4045   23.2470 C   0  0  0  0  0  0  0  0  0  0  0  0
    4.6272   30.5273   24.2589 C   0  0  0  0  0  0  0  0  0  0  0  0
    5.8656   31.2276   24.0891 N   0  0  0  0  0  0  0  0  0  0  0  0
    6.6785   30.5984   23.1665 C   0  0  0  0  0  0  0  0  0  0  0  0
    5.9873   29.5792   22.5710 O   0  0  0  0  0  0  0  0  0  0  0  0
    7.8288   30.8971   22.8734 O   0  0  0  0  0  0  0  0  0  0  0  0
    6.3004   32.3873   24.6746 N   0  0  0  0  0  0  0  0  0  0  0  0
    5.4181   33.2124   25.1353 C   0  0  0  0  0  0  0  0  0  0  0  0
    5.7905   34.5325   25.7319 C   0  0  0  0  0  0  0  0  0  0  0  0
    4.8398   35.5711   25.8557 C   0  0  0  0  0  0  0  0  0  0  0  0
    5.2188   36.8100   26.4229 C   0  0  0  0  0  0  0  0  0  0  0  0
    6.5351   37.0001   26.8696 C   0  0  0  0  0  0  0  0  0  0  0  0
    7.4776   35.9664   26.7517 C   0  0  0  0  0  0  0  0  0  0  0  0
    7.1104   34.7365   26.1795 C   0  0  0  0  0  0  0  0  0  0  0  0
    3.4761   35.4119   25.4191 C   0  0  0  0  0  0  0  0  0  0  0  0
    2.3220   35.2996   25.0448 C   0  0  0  0  0  0  0  0  0  0  0  0
    1.0181   35.2413   24.4441 C   0  0  0  0  0  0  0  0  0  0  0  0
    0.8563   35.7863   23.1990 C   0  0  0  0  0  0  0  0  0  0  0  0
   -0.4203   35.7101   22.6864 C   0  0  0  0  0  0  0  0  0  0  0  0
   -1.4426   35.1367   23.3594 N   0  0  0  0  0  0  0  0  0  0  0  0
   -1.1760   34.6310   24.5736 C   0  0  0  0  0  0  0  0  0  0  0  0
    0.0314   34.6549   25.1529 N   0  0  0  0  0  0  0  0  0  0  0  0
   -0.6994   36.2837   21.3293 C   0  0  0  0  0  0  0  0  0  0  0  0
   -2.2048   34.0522   25.2545 N   0  0  0  0  0  0  0  0  0  0  0  0
    3.9149   29.4346   22.5177 H   0  0  0  0  0  0  0  0  0  0  0  0
    4.7301   28.4169   23.7234 H   0  0  0  0  0  0  0  0  0  0  0  0
    4.5352   30.1289   25.2772 H   0  0  0  0  0  0  0  0  0  0  0  0
    3.7600   31.1604   24.0501 H   0  0  0  0  0  0  0  0  0  0  0  0
    4.3516   32.9626   25.0648 H   0  0  0  0  0  0  0  0  0  0  0  0
    4.4926   37.6220   26.5201 H   0  0  0  0  0  0  0  0  0  0  0  0
    6.8266   37.9575   27.3113 H   0  0  0  0  0  0  0  0  0  0  0  0
    8.5001   36.1182   27.1028 H   0  0  0  0  0  0  0  0  0  0  0  0
    7.8531   33.9356   26.0927 H   0  0  0  0  0  0  0  0  0  0  0  0
    1.6742   36.2457   22.6651 H   0  0  0  0  0  0  0  0  0  0  0  0
   -1.7514   36.1460   21.0629 H   0  0  0  0  0  0  0  0  0  0  0  0
   -0.0792   35.7838   20.5777 H   0  0  0  0  0  0  0  0  0  0  0  0
   -0.4733   37.3552   21.3225 H   0  0  0  0  0  0  0  0  0  0  0  0
   -3.1207   34.0306   24.8304 H   0  0  0  0  0  0  0  0  0  0  0  0
   -2.0209   33.6734   26.1678 H   0  0  0  0  0  0  0  0  0  0  0  0
  1  2  1  0  0  0  0
  1  5  1  0  0  0  0
  1 25  1  0  0  0  0
  1 26  1  0  0  0  0
  2  3  1  0  0  0  0
  2 27  1  0  0  0  0
  2 28  1  0  0  0  0
  3  4  1  0  0  0  0
  3  7  1  0  0  0  0
  4  5  1  0  0  0  0
  4  6  2  0  0  0  0
  7  8  2  0  0  0  0
  8  9  1  0  0  0  0
  8 29  1  0  0  0  0
  9 10  2  0  0  0  0
  9 14  1  0  0  0  0
 10 11  1  0  0  0  0
 10 15  1  0  0  0  0
 11 12  2  0  0  0  0
 11 30  1  0  0  0  0
 12 13  1  0  0  0  0
 12 31  1  0  0  0  0
 13 14  2  0  0  0  0
 13 32  1  0  0  0  0
 14 33  1  0  0  0  0
 15 16  3  0  0  0  0
 16 17  1  0  0  0  0
 17 18  2  0  0  0  0
 17 22  1  0  0  0  0
 18 19  1  0  0  0  0
 18 34  1  0  0  0  0
 19 20  2  0  0  0  0
 19 23  1  0  0  0  0
 20 21  1  0  0  0  0
 21 22  2  0  0  0  0
 21 24  1  0  0  0  0
 23 35  1  0  0  0  0
 23 36  1  0  0  0  0
 23 37  1  0  0  0  0
 24 38  1  0  0  0  0
 24 39  1  0  0  0  0
M  END
$$$$
