ABN
 OpenBabel04051917293D

 18 18  0  0  0  0  0  0  0  0999 V2000
  -11.2809   28.6444   41.8660 N   0  3  0  0  0  0  0  0  0  0  0  0
  -12.4956   27.8351   42.1065 C   0  0  0  0  0  0  0  0  0  0  0  0
  -12.9542   27.9490   43.5299 C   0  0  0  0  0  0  0  0  0  0  0  0
  -14.2236   28.4691   43.8216 C   0  0  0  0  0  0  0  0  0  0  0  0
  -14.6570   28.5696   45.1445 C   0  0  0  0  0  0  0  0  0  0  0  0
  -13.8260   28.1595   46.1834 C   0  0  0  0  0  0  0  0  0  0  0  0
  -12.5627   27.6419   45.9076 C   0  0  0  0  0  0  0  0  0  0  0  0
  -12.1269   27.5357   44.5864 C   0  0  0  0  0  0  0  0  0  0  0  0
  -10.9751   28.5905   40.8886 H   0  0  0  0  0  0  0  0  0  0  0  0
  -11.4619   29.6286   42.0996 H   0  0  0  0  0  0  0  0  0  0  0  0
  -12.2576   26.7974   41.8522 H   0  0  0  0  0  0  0  0  0  0  0  0
  -13.2507   28.2031   41.4046 H   0  0  0  0  0  0  0  0  0  0  0  0
  -14.9009   28.7915   43.0327 H   0  0  0  0  0  0  0  0  0  0  0  0
  -15.6465   28.9626   45.3682 H   0  0  0  0  0  0  0  0  0  0  0  0
  -14.1703   28.2306   47.2150 H   0  0  0  0  0  0  0  0  0  0  0  0
  -11.9214   27.3208   46.7269 H   0  0  0  0  0  0  0  0  0  0  0  0
  -11.1436   27.1084   44.4096 H   0  0  0  0  0  0  0  0  0  0  0  0
  -10.5073   28.3293   42.4623 H   0  0  0  0  0  0  0  0  0  0  0  0
  1  2  1  0  0  0  0
  1  9  1  0  0  0  0
  1 10  1  0  0  0  0
  1 18  1  0  0  0  0
  2  3  1  0  0  0  0
  2 11  1  0  0  0  0
  2 12  1  0  0  0  0
  3  8  2  0  0  0  0
  3  4  1  0  0  0  0
  4  5  2  0  0  0  0
  4 13  1  0  0  0  0
  5  6  1  0  0  0  0
  5 14  1  0  0  0  0
  6  7  2  0  0  0  0
  6 15  1  0  0  0  0
  7  8  1  0  0  0  0
  7 16  1  0  0  0  0
  8 17  1  0  0  0  0
M  CHG  1   1   1
M  END
$$$$
