ACR
 OpenBabel04051920553D

 88 91  0  0  1  0  0  0  0  0999 V2000
   31.8812   51.7446   36.2182 C   0  0  2  0  0  0  0  0  0  0  0  0
   32.3477   50.7891   35.0876 C   0  0  1  0  0  0  0  0  0  0  0  0
   31.2807   49.7323   34.7522 C   0  0  2  0  0  0  0  0  0  0  0  0
   30.7929   48.9547   36.0022 C   0  0  1  0  0  0  0  0  0  0  0  0
   30.7993   49.7605   37.2844 C   0  0  0  0  0  0  0  0  0  0  0  0
   30.2904   49.0565   38.5155 C   0  0  0  0  0  0  0  0  0  0  0  0
   31.2347   51.0173   37.3492 C   0  0  0  0  0  0  0  0  0  0  0  0
   32.6330   51.6241   33.9425 O   0  0  0  0  0  0  0  0  0  0  0  0
   31.8121   48.7966   33.8024 O   0  0  0  0  0  0  0  0  0  0  0  0
   29.4366   48.5724   35.7578 O   0  0  0  0  0  0  0  0  0  0  0  0
   31.3497   48.2208   38.9609 O   0  0  0  0  0  0  0  0  0  0  0  0
   29.0388   56.2814   37.2601 C   0  0  2  0  0  0  0  0  0  0  0  0
   30.5854   56.2429   37.1342 C   0  0  1  0  0  0  0  0  0  0  0  0
   31.0028   55.2143   36.0819 C   0  0  2  0  0  0  0  0  0  0  0  0
   30.4350   53.8522   36.4968 C   0  0  1  0  0  0  0  0  0  0  0  0
   28.9019   53.9767   36.4974 C   0  0  1  0  0  0  0  0  0  0  0  0
   28.2063   52.6796   36.8846 C   0  0  0  0  0  0  0  0  0  0  0  0
   30.9754   52.7873   35.5919 N   0  3  0  0  0  0  0  0  0  0  0  0
   31.1928   57.4868   36.7862 O   0  0  0  0  0  0  0  0  0  0  0  0
   32.4264   55.1111   35.9761 O   0  0  0  0  0  0  0  0  0  0  0  0
   28.5089   54.9634   37.4609 O   0  0  0  0  0  0  0  0  0  0  0  0
   25.5911   60.0138   35.7622 C   0  0  2  0  0  0  0  0  0  0  0  0
   27.0953   60.3757   35.7402 C   0  0  1  0  0  0  0  0  0  0  0  0
   27.9466   59.1516   35.4136 C   0  0  2  0  0  0  0  0  0  0  0  0
   27.6136   58.0124   36.3904 C   0  0  1  0  0  0  0  0  0  0  0  0
   26.1110   57.7128   36.2413 C   0  0  1  0  0  0  0  0  0  0  0  0
   25.6279   56.5842   37.1539 C   0  0  0  0  0  0  0  0  0  0  0  0
   27.3541   61.4412   34.8170 O   0  0  0  0  0  0  0  0  0  0  0  0
   29.3480   59.4695   35.5394 O   0  0  0  0  0  0  0  0  0  0  0  0
   28.4671   56.8815   36.0855 O   0  0  0  0  0  0  0  0  0  0  0  0
   25.3461   58.8824   36.5963 O   0  0  0  0  0  0  0  0  0  0  0  0
   25.9030   56.9053   38.5147 O   0  0  0  0  0  0  0  0  0  0  0  0
   21.4568   60.8196   32.5589 C   0  0  1  0  0  0  0  0  0  0  0  0
   22.3877   61.9749   32.9908 C   0  0  1  0  0  0  0  0  0  0  0  0
   23.8038   61.4521   33.2708 C   0  0  2  0  0  0  0  0  0  0  0  0
   23.7534   60.2816   34.2599 C   0  0  1  0  0  0  0  0  0  0  0  0
   22.8057   59.2085   33.6978 C   0  0  1  0  0  0  0  0  0  0  0  0
   22.6464   58.0087   34.6363 C   0  0  0  0  0  0  0  0  0  0  0  0
   21.7508   60.2714   31.2778 O   0  0  0  0  0  0  0  0  0  0  0  0
   22.4444   63.0026   32.0061 O   0  0  0  0  0  0  0  0  0  0  0  0
   24.6013   62.5301   33.7885 O   0  0  0  0  0  0  0  0  0  0  0  0
   25.0906   59.7716   34.4367 O   0  0  0  0  0  0  0  0  0  0  0  0
   21.4858   59.7629   33.5197 O   0  0  0  0  0  0  0  0  0  0  0  0
   22.0758   58.4131   35.8797 O   0  0  0  0  0  0  0  0  0  0  0  0
   32.7519   52.3034   36.5785 H   0  0  0  0  0  0  0  0  0  0  0  0
   33.2816   50.2922   35.3725 H   0  0  0  0  0  0  0  0  0  0  0  0
   30.4280   50.2082   34.2486 H   0  0  0  0  0  0  0  0  0  0  0  0
   31.3926   48.0432   36.1327 H   0  0  0  0  0  0  0  0  0  0  0  0
   29.4125   48.4334   38.3116 H   0  0  0  0  0  0  0  0  0  0  0  0
   30.0156   49.7479   39.3132 H   0  0  0  0  0  0  0  0  0  0  0  0
   31.2449   51.5221   38.3216 H   0  0  0  0  0  0  0  0  0  0  0  0
   32.1075   51.3379   33.1707 H   0  0  0  0  0  0  0  0  0  0  0  0
   32.2235   49.2593   33.0542 H   0  0  0  0  0  0  0  0  0  0  0  0
   29.3513   47.6490   36.0462 H   0  0  0  0  0  0  0  0  0  0  0  0
   31.8007   48.6763   39.6955 H   0  0  0  0  0  0  0  0  0  0  0  0
   28.7988   56.8558   38.1603 H   0  0  0  0  0  0  0  0  0  0  0  0
   31.0152   55.9433   38.0990 H   0  0  0  0  0  0  0  0  0  0  0  0
   30.6416   55.5137   35.0903 H   0  0  0  0  0  0  0  0  0  0  0  0
   30.7961   53.6293   37.5079 H   0  0  0  0  0  0  0  0  0  0  0  0
   28.5353   54.2814   35.5067 H   0  0  0  0  0  0  0  0  0  0  0  0
   27.1212   52.8218   36.9171 H   0  0  0  0  0  0  0  0  0  0  0  0
   28.5078   52.3543   37.8856 H   0  0  0  0  0  0  0  0  0  0  0  0
   28.4149   51.8703   36.1748 H   0  0  0  0  0  0  0  0  0  0  0  0
   31.6302   53.2474   34.9324 H   0  0  0  0  0  0  0  0  0  0  0  0
   30.5143   58.0583   36.3598 H   0  0  0  0  0  0  0  0  0  0  0  0
   32.7627   56.0339   36.0430 H   0  0  0  0  0  0  0  0  0  0  0  0
   25.0716   60.8736   36.2052 H   0  0  0  0  0  0  0  0  0  0  0  0
   27.3703   60.7457   36.7405 H   0  0  0  0  0  0  0  0  0  0  0  0
   27.7903   58.8412   34.3712 H   0  0  0  0  0  0  0  0  0  0  0  0
   27.8269   58.3963   37.3970 H   0  0  0  0  0  0  0  0  0  0  0  0
   25.8870   57.4207   35.2084 H   0  0  0  0  0  0  0  0  0  0  0  0
   26.1114   55.6366   36.9079 H   0  0  0  0  0  0  0  0  0  0  0  0
   24.5459   56.4445   37.0571 H   0  0  0  0  0  0  0  0  0  0  0  0
   28.3013   61.6554   34.9283 H   0  0  0  0  0  0  0  0  0  0  0  0
   29.7676   59.1956   34.7023 H   0  0  0  0  0  0  0  0  0  0  0  0
   25.3163   57.6597   38.7234 H   0  0  0  0  0  0  0  0  0  0  0  0
   20.4257   61.1892   32.5063 H   0  0  0  0  0  0  0  0  0  0  0  0
   21.9898   62.4258   33.9152 H   0  0  0  0  0  0  0  0  0  0  0  0
   24.2892   61.1541   32.3298 H   0  0  0  0  0  0  0  0  0  0  0  0
   23.3411   60.6568   35.2065 H   0  0  0  0  0  0  0  0  0  0  0  0
   23.1849   58.8246   32.7430 H   0  0  0  0  0  0  0  0  0  0  0  0
   23.6034   57.5259   34.8303 H   0  0  0  0  0  0  0  0  0  0  0  0
   21.9733   57.2680   34.1961 H   0  0  0  0  0  0  0  0  0  0  0  0
   22.5990   60.6432   30.9740 H   0  0  0  0  0  0  0  0  0  0  0  0
   23.0294   63.6889   32.3818 H   0  0  0  0  0  0  0  0  0  0  0  0
   25.5138   62.1855   33.8892 H   0  0  0  0  0  0  0  0  0  0  0  0
   21.2224   58.8319   35.6476 H   0  0  0  0  0  0  0  0  0  0  0  0
   30.2356   52.3359   35.0361 H   0  0  0  0  0  0  0  0  0  0  0  0
  1  2  1  0  0  0  0
  1  7  1  0  0  0  0
  1 18  1  0  0  0  0
  1 45  1  1  0  0  0
  2  3  1  0  0  0  0
  2  8  1  0  0  0  0
  2 46  1  1  0  0  0
  3  4  1  0  0  0  0
  3  9  1  0  0  0  0
  3 47  1  6  0  0  0
  4  5  1  0  0  0  0
  4 10  1  0  0  0  0
  4 48  1  1  0  0  0
  5  6  1  0  0  0  0
  5  7  2  0  0  0  0
  6 11  1  0  0  0  0
  6 49  1  0  0  0  0
  6 50  1  0  0  0  0
  7 51  1  0  0  0  0
  8 52  1  0  0  0  0
  9 53  1  0  0  0  0
 10 54  1  0  0  0  0
 11 55  1  0  0  0  0
 12 13  1  0  0  0  0
 12 21  1  0  0  0  0
 12 30  1  0  0  0  0
 12 56  1  1  0  0  0
 13 14  1  0  0  0  0
 13 19  1  0  0  0  0
 13 57  1  1  0  0  0
 14 15  1  0  0  0  0
 14 20  1  0  0  0  0
 14 58  1  6  0  0  0
 15 16  1  0  0  0  0
 15 18  1  0  0  0  0
 15 59  1  1  0  0  0
 16 17  1  0  0  0  0
 16 21  1  0  0  0  0
 16 60  1  6  0  0  0
 17 61  1  0  0  0  0
 17 62  1  0  0  0  0
 17 63  1  0  0  0  0
 18 64  1  0  0  0  0
 18 88  1  0  0  0  0
 19 65  1  0  0  0  0
 20 66  1  0  0  0  0
 22 23  1  0  0  0  0
 22 31  1  0  0  0  0
 22 42  1  0  0  0  0
 22 67  1  1  0  0  0
 23 24  1  0  0  0  0
 23 28  1  0  0  0  0
 23 68  1  1  0  0  0
 24 25  1  0  0  0  0
 24 29  1  0  0  0  0
 24 69  1  6  0  0  0
 25 26  1  0  0  0  0
 25 30  1  0  0  0  0
 25 70  1  1  0  0  0
 26 27  1  0  0  0  0
 26 31  1  0  0  0  0
 26 71  1  6  0  0  0
 27 32  1  0  0  0  0
 27 72  1  0  0  0  0
 27 73  1  0  0  0  0
 28 74  1  0  0  0  0
 29 75  1  0  0  0  0
 32 76  1  0  0  0  0
 33 34  1  0  0  0  0
 33 39  1  0  0  0  0
 33 43  1  0  0  0  0
 33 77  1  6  0  0  0
 34 35  1  0  0  0  0
 34 40  1  0  0  0  0
 34 78  1  1  0  0  0
 35 36  1  0  0  0  0
 35 41  1  0  0  0  0
 35 79  1  6  0  0  0
 36 37  1  0  0  0  0
 36 42  1  0  0  0  0
 36 80  1  1  0  0  0
 37 38  1  0  0  0  0
 37 43  1  0  0  0  0
 37 81  1  6  0  0  0
 38 44  1  0  0  0  0
 38 82  1  0  0  0  0
 38 83  1  0  0  0  0
 39 84  1  0  0  0  0
 40 85  1  0  0  0  0
 41 86  1  0  0  0  0
 44 87  1  0  0  0  0
M  CHG  1  18   1
M  END
$$$$
