ADN
 OpenBabel04051917593D

 32 34  0  0  1  0  0  0  0  0999 V2000
   31.2964   62.4065   13.3041 O   0  0  0  0  0  0  0  0  0  0  0  0
   31.0663   61.0716   13.7458 C   0  0  0  0  0  0  0  0  0  0  0  0
   31.9559   60.0382   13.0430 C   0  0  1  0  0  0  0  0  0  0  0  0
   31.7876   60.1146   11.6082 O   0  0  0  0  0  0  0  0  0  0  0  0
   33.4479   60.2239   13.3007 C   0  0  1  0  0  0  0  0  0  0  0  0
   33.8878   59.7420   14.5625 O   0  0  0  0  0  0  0  0  0  0  0  0
   34.0466   59.4801   12.1080 C   0  0  1  0  0  0  0  0  0  0  0  0
   33.9850   58.0605   12.3343 O   0  0  0  0  0  0  0  0  0  0  0  0
   33.0779   59.8790   10.9821 C   0  0  2  0  0  0  0  0  0  0  0  0
   33.4791   61.0703   10.2541 N   0  3  0  0  0  0  0  0  0  0  0  0
   33.0864   62.3590   10.5042 C   0  0  0  0  0  0  0  0  0  0  0  0
   33.6727   63.2296    9.7157 N   0  0  0  0  0  0  0  0  0  0  0  0
   34.4148   62.4583    8.8502 C   0  0  0  0  0  0  0  0  0  0  0  0
   35.2037   62.8107    7.7440 C   0  0  0  0  0  0  0  0  0  0  0  0
   35.3606   64.1148    7.3383 N   0  0  0  0  0  0  0  0  0  0  0  0
   35.8151   61.8205    7.0597 N   0  0  0  0  0  0  0  0  0  0  0  0
   35.6316   60.5446    7.4785 C   0  0  0  0  0  0  0  0  0  0  0  0
   34.9165   60.0905    8.5323 N   0  0  0  0  0  0  0  0  0  0  0  0
   34.3152   61.1117    9.1667 C   0  0  0  0  0  0  0  0  0  0  0  0
   32.1994   62.6776   13.5340 H   0  0  0  0  0  0  0  0  0  0  0  0
   30.0142   60.8544   13.5365 H   0  0  0  0  0  0  0  0  0  0  0  0
   31.2117   61.0466   14.8298 H   0  0  0  0  0  0  0  0  0  0  0  0
   31.6336   59.0410   13.3696 H   0  0  0  0  0  0  0  0  0  0  0  0
   33.7363   61.2773   13.2328 H   0  0  0  0  0  0  0  0  0  0  0  0
   33.3877   60.1779   15.2669 H   0  0  0  0  0  0  0  0  0  0  0  0
   35.0941   59.7438   11.9332 H   0  0  0  0  0  0  0  0  0  0  0  0
   34.4299   57.6184   11.5902 H   0  0  0  0  0  0  0  0  0  0  0  0
   32.9436   59.0730   10.2522 H   0  0  0  0  0  0  0  0  0  0  0  0
   32.3669   62.6171   11.2620 H   0  0  0  0  0  0  0  0  0  0  0  0
   35.9978   64.3181    6.5855 H   0  0  0  0  0  0  0  0  0  0  0  0
   34.9655   64.8484    7.9168 H   0  0  0  0  0  0  0  0  0  0  0  0
   36.1389   59.7868    6.8833 H   0  0  0  0  0  0  0  0  0  0  0  0
  1  2  1  0  0  0  0
  1 20  1  0  0  0  0
  2  3  1  0  0  0  0
  2 21  1  0  0  0  0
  2 22  1  0  0  0  0
  3  4  1  0  0  0  0
  3  5  1  0  0  0  0
  3 23  1  1  0  0  0
  4  9  1  0  0  0  0
  5  6  1  0  0  0  0
  5  7  1  0  0  0  0
  5 24  1  6  0  0  0
  6 25  1  0  0  0  0
  7  8  1  0  0  0  0
  7  9  1  0  0  0  0
  7 26  1  6  0  0  0
  8 27  1  0  0  0  0
  9 10  1  0  0  0  0
  9 28  1  6  0  0  0
 10 11  2  0  0  0  0
 10 19  1  0  0  0  0
 11 12  1  0  0  0  0
 11 29  1  0  0  0  0
 12 13  1  0  0  0  0
 13 14  2  0  0  0  0
 13 19  1  0  0  0  0
 14 15  1  0  0  0  0
 14 16  1  0  0  0  0
 15 30  1  0  0  0  0
 15 31  1  0  0  0  0
 16 17  2  0  0  0  0
 17 18  1  0  0  0  0
 17 32  1  0  0  0  0
 18 19  2  0  0  0  0
M  CHG  1  10   1
M  END
$$$$
