ADN
 OpenBabel04051918033D

 32 34  0  0  1  0  0  0  0  0999 V2000
   18.7666   18.0521   12.3254 O   0  0  0  0  0  0  0  0  0  0  0  0
   18.0904   19.2518   11.9622 C   0  0  0  0  0  0  0  0  0  0  0  0
   17.1290   18.8710   10.8472 C   0  0  1  0  0  0  0  0  0  0  0  0
   15.8972   18.4666   11.4780 O   0  0  0  0  0  0  0  0  0  0  0  0
   16.8057   19.9955    9.8744 C   0  0  1  0  0  0  0  0  0  0  0  0
   17.5763   19.8996    8.6814 O   0  0  0  0  0  0  0  0  0  0  0  0
   15.3186   19.7860    9.5932 C   0  0  1  0  0  0  0  0  0  0  0  0
   15.0865   18.7641    8.6219 O   0  0  0  0  0  0  0  0  0  0  0  0
   14.8113   19.2081   10.8995 C   0  0  2  0  0  0  0  0  0  0  0  0
   14.3299   20.1847   11.8483 N   0  3  0  0  0  0  0  0  0  0  0  0
   15.0288   21.2063   12.4180 C   0  0  0  0  0  0  0  0  0  0  0  0
   14.2729   21.9502   13.2126 N   0  0  0  0  0  0  0  0  0  0  0  0
   13.0214   21.3670   13.1335 C   0  0  0  0  0  0  0  0  0  0  0  0
   11.7825   21.6623   13.7280 C   0  0  0  0  0  0  0  0  0  0  0  0
   11.6085   22.7055   14.6132 N   0  0  0  0  0  0  0  0  0  0  0  0
   10.7064   20.8950   13.4069 N   0  0  0  0  0  0  0  0  0  0  0  0
   10.8748   19.8826   12.5301 C   0  0  0  0  0  0  0  0  0  0  0  0
   12.0066   19.4997   11.9162 N   0  0  0  0  0  0  0  0  0  0  0  0
   13.0353   20.2811   12.2719 C   0  0  0  0  0  0  0  0  0  0  0  0
   19.3025   18.2474   13.1117 H   0  0  0  0  0  0  0  0  0  0  0  0
   18.8353   19.9926   11.6596 H   0  0  0  0  0  0  0  0  0  0  0  0
   17.5504   19.6147   12.8459 H   0  0  0  0  0  0  0  0  0  0  0  0
   17.5436   18.0155   10.2996 H   0  0  0  0  0  0  0  0  0  0  0  0
   17.0075   20.9759   10.3196 H   0  0  0  0  0  0  0  0  0  0  0  0
   17.5196   18.9726    8.3823 H   0  0  0  0  0  0  0  0  0  0  0  0
   14.8218   20.7147    9.2780 H   0  0  0  0  0  0  0  0  0  0  0  0
   15.5617   18.9998    7.7968 H   0  0  0  0  0  0  0  0  0  0  0  0
   14.0043   18.4973   10.7035 H   0  0  0  0  0  0  0  0  0  0  0  0
   16.0699   21.4088   12.2421 H   0  0  0  0  0  0  0  0  0  0  0  0
   10.7010   22.8497   15.0239 H   0  0  0  0  0  0  0  0  0  0  0  0
   12.4060   23.2667   14.8752 H   0  0  0  0  0  0  0  0  0  0  0  0
    9.9920   19.2753   12.3210 H   0  0  0  0  0  0  0  0  0  0  0  0
  1  2  1  0  0  0  0
  1 20  1  0  0  0  0
  2  3  1  0  0  0  0
  2 21  1  0  0  0  0
  2 22  1  0  0  0  0
  3  4  1  0  0  0  0
  3  5  1  0  0  0  0
  3 23  1  6  0  0  0
  4  9  1  0  0  0  0
  5  6  1  0  0  0  0
  5  7  1  0  0  0  0
  5 24  1  1  0  0  0
  6 25  1  0  0  0  0
  7  8  1  0  0  0  0
  7  9  1  0  0  0  0
  7 26  1  6  0  0  0
  8 27  1  0  0  0  0
  9 10  1  0  0  0  0
  9 28  1  6  0  0  0
 10 11  2  0  0  0  0
 10 19  1  0  0  0  0
 11 12  1  0  0  0  0
 11 29  1  0  0  0  0
 12 13  1  0  0  0  0
 13 14  2  0  0  0  0
 13 19  1  0  0  0  0
 14 15  1  0  0  0  0
 14 16  1  0  0  0  0
 15 30  1  0  0  0  0
 15 31  1  0  0  0  0
 16 17  2  0  0  0  0
 17 18  1  0  0  0  0
 17 32  1  0  0  0  0
 18 19  2  0  0  0  0
M  CHG  1  10   1
M  END
$$$$
