ADP
 OpenBabel04051918103D

 39 41  0  0  1  0  0  0  0  0999 V2000
  113.3213   48.2426   16.9446 P   0  0  0  0  0  0  0  0  0  0  0  0
  114.3985   48.8750   17.8208 O   0  0  0  0  0  0  0  0  0  0  0  0
  112.4894   47.1520   17.6137 O   0  0  0  0  0  0  0  0  0  0  0  0
  113.8833   47.7634   15.6008 O   0  0  0  0  0  0  0  0  0  0  0  0
  111.5318   50.4178   17.6137 P   0  0  1  0  0  0  0  0  0  0  0  0
  110.7673   49.7425   18.7328 O   0  0  0  0  0  0  0  0  0  0  0  0
  112.2889   51.7089   17.8897 O   0  0  0  0  0  0  0  0  0  0  0  0
  112.2815   49.4392   16.5780 O   0  0  0  0  0  0  0  0  0  0  0  0
  109.0154   55.2135   13.3342 N   0  3  0  0  0  0  0  0  0  0  0  0
  109.5302   56.1231   14.2467 C   0  0  0  0  0  0  0  0  0  0  0  0
  108.9858   57.3244   14.1179 N   0  0  0  0  0  0  0  0  0  0  0  0
  108.0741   57.1599   13.0924 C   0  0  0  0  0  0  0  0  0  0  0  0
  107.1859   58.0824   12.4992 C   0  0  0  0  0  0  0  0  0  0  0  0
  107.0781   59.3948   12.9119 N   0  0  0  0  0  0  0  0  0  0  0  0
  106.4141   57.6639   11.4765 N   0  0  0  0  0  0  0  0  0  0  0  0
  106.5382   56.3760   11.0795 C   0  0  0  0  0  0  0  0  0  0  0  0
  107.3440   55.4010   11.5545 N   0  0  0  0  0  0  0  0  0  0  0  0
  108.0862   55.8743   12.5946 C   0  0  0  0  0  0  0  0  0  0  0  0
  110.2974   50.8983   16.6127 O   0  0  0  0  0  0  0  0  0  0  0  0
  110.4330   52.1456   15.9639 C   0  0  0  0  0  0  0  0  0  0  0  0
  109.9949   51.9925   14.5072 C   0  0  1  0  0  0  0  0  0  0  0  0
  108.9814   53.0037   14.1929 O   0  0  0  0  0  0  0  0  0  0  0  0
  111.1749   52.2282   13.5471 C   0  0  1  0  0  0  0  0  0  0  0  0
  111.1053   51.4605   12.3248 O   0  0  0  0  0  0  0  0  0  0  0  0
  111.0103   53.6922   13.1612 C   0  0  1  0  0  0  0  0  0  0  0  0
  111.5774   54.0228   11.8878 O   0  0  0  0  0  0  0  0  0  0  0  0
  109.4924   53.8546   13.1555 C   0  0  2  0  0  0  0  0  0  0  0  0
  110.3068   55.8678   14.9574 H   0  0  0  0  0  0  0  0  0  0  0  0
  106.4131   59.9855   12.4480 H   0  0  0  0  0  0  0  0  0  0  0  0
  107.6599   59.7035   13.6786 H   0  0  0  0  0  0  0  0  0  0  0  0
  105.8923   56.0831   10.2586 H   0  0  0  0  0  0  0  0  0  0  0  0
  111.4661   52.4912   15.9951 H   0  0  0  0  0  0  0  0  0  0  0  0
  109.8251   52.8817   16.5013 H   0  0  0  0  0  0  0  0  0  0  0  0
  109.5204   51.0167   14.3403 H   0  0  0  0  0  0  0  0  0  0  0  0
  112.1496   52.0135   14.0082 H   0  0  0  0  0  0  0  0  0  0  0  0
  110.1756   51.2769   12.1255 H   0  0  0  0  0  0  0  0  0  0  0  0
  111.4941   54.3078   13.9273 H   0  0  0  0  0  0  0  0  0  0  0  0
  111.3777   53.2608   11.3074 H   0  0  0  0  0  0  0  0  0  0  0  0
  109.0748   53.4939   12.1940 H   0  0  0  0  0  0  0  0  0  0  0  0
  1  2  2  0  0  0  0
  1  3  1  0  0  0  0
  1  4  1  0  0  0  0
  1  8  1  0  0  0  0
  5  6  2  1  0  0  0
  5  7  1  0  0  0  0
  5  8  1  0  0  0  0
  5 19  1  0  0  0  0
  9 10  2  0  0  0  0
  9 18  1  0  0  0  0
  9 27  1  0  0  0  0
 10 11  1  0  0  0  0
 10 28  1  0  0  0  0
 11 12  1  0  0  0  0
 12 13  2  0  0  0  0
 12 18  1  0  0  0  0
 13 14  1  0  0  0  0
 13 15  1  0  0  0  0
 14 29  1  0  0  0  0
 14 30  1  0  0  0  0
 15 16  2  0  0  0  0
 16 17  1  0  0  0  0
 16 31  1  0  0  0  0
 17 18  2  0  0  0  0
 19 20  1  0  0  0  0
 20 21  1  0  0  0  0
 20 32  1  0  0  0  0
 20 33  1  0  0  0  0
 21 22  1  0  0  0  0
 21 23  1  0  0  0  0
 21 34  1  6  0  0  0
 22 27  1  0  0  0  0
 23 24  1  0  0  0  0
 23 25  1  0  0  0  0
 23 35  1  1  0  0  0
 24 36  1  0  0  0  0
 25 26  1  0  0  0  0
 25 27  1  0  0  0  0
 25 37  1  1  0  0  0
 26 38  1  0  0  0  0
 27 39  1  6  0  0  0
M  CHG  1   9   1
M  END
$$$$
