ADP
 OpenBabel04051919233D

 39 41  0  0  1  0  0  0  0  0999 V2000
   78.4232   70.0267   90.2332 P   0  0  0  0  0  0  0  0  0  0  0  0
   79.0628   71.3919   89.9451 O   0  0  0  0  0  0  0  0  0  0  0  0
   76.9713   69.9557   89.7915 O   0  0  0  0  0  0  0  0  0  0  0  0
   79.3309   68.8943   89.7633 O   0  0  0  0  0  0  0  0  0  0  0  0
   77.9181   68.6724   92.7028 P   0  0  2  0  0  0  0  0  0  0  0  0
   78.1317   67.2891   92.1129 O   0  0  0  0  0  0  0  0  0  0  0  0
   76.6144   68.9600   93.4553 O   0  0  0  0  0  0  0  0  0  0  0  0
   78.4059   69.9214   91.8478 O   0  0  0  0  0  0  0  0  0  0  0  0
   79.0121   68.7046   93.9205 O   0  0  0  0  0  0  0  0  0  0  0  0
   80.1836   69.4790   93.8341 C   0  0  0  0  0  0  0  0  0  0  0  0
   81.2065   68.9329   94.8446 C   0  0  1  0  0  0  0  0  0  0  0  0
   80.8911   69.3633   96.1977 O   0  0  0  0  0  0  0  0  0  0  0  0
   81.2964   67.4029   94.8308 C   0  0  1  0  0  0  0  0  0  0  0  0
   82.6260   66.9669   94.4868 O   0  0  0  0  0  0  0  0  0  0  0  0
   80.9224   66.9489   96.2415 C   0  0  1  0  0  0  0  0  0  0  0  0
   81.9968   66.2146   96.8780 O   0  0  0  0  0  0  0  0  0  0  0  0
   80.6155   68.2230   97.0322 C   0  0  2  0  0  0  0  0  0  0  0  0
   79.2667   68.2831   97.5740 N   0  3  0  0  0  0  0  0  0  0  0  0
   78.1142   68.5040   96.8690 C   0  0  0  0  0  0  0  0  0  0  0  0
   77.0270   68.4232   97.6379 N   0  0  0  0  0  0  0  0  0  0  0  0
   77.4921   68.1373   98.8792 C   0  0  0  0  0  0  0  0  0  0  0  0
   76.8191   67.9296  100.0966 C   0  0  0  0  0  0  0  0  0  0  0  0
   75.4537   68.0093  100.2536 N   0  0  0  0  0  0  0  0  0  0  0  0
   77.5623   67.6501  101.1965 N   0  0  0  0  0  0  0  0  0  0  0  0
   78.9017   67.6001  101.0573 C   0  0  0  0  0  0  0  0  0  0  0  0
   79.6613   67.7712   99.9438 N   0  0  0  0  0  0  0  0  0  0  0  0
   78.8901   68.0398   98.8749 C   0  0  0  0  0  0  0  0  0  0  0  0
   79.9251   70.5104   94.0935 H   0  0  0  0  0  0  0  0  0  0  0  0
   80.6121   69.4343   92.8277 H   0  0  0  0  0  0  0  0  0  0  0  0
   82.1812   69.3815   94.6142 H   0  0  0  0  0  0  0  0  0  0  0  0
   80.6226   66.9589   94.0920 H   0  0  0  0  0  0  0  0  0  0  0  0
   83.2467   67.3686   95.1052 H   0  0  0  0  0  0  0  0  0  0  0  0
   80.0571   66.2793   96.2220 H   0  0  0  0  0  0  0  0  0  0  0  0
   82.7820   66.7832   96.8613 H   0  0  0  0  0  0  0  0  0  0  0  0
   81.3035   68.3070   97.8848 H   0  0  0  0  0  0  0  0  0  0  0  0
   78.0947   68.7112   95.8191 H   0  0  0  0  0  0  0  0  0  0  0  0
   75.0539   67.8370  101.1570 H   0  0  0  0  0  0  0  0  0  0  0  0
   74.8980   68.1830   99.4251 H   0  0  0  0  0  0  0  0  0  0  0  0
   79.4464   67.3810  101.9645 H   0  0  0  0  0  0  0  0  0  0  0  0
  1  2  2  0  0  0  0
  1  3  1  0  0  0  0
  1  4  1  0  0  0  0
  1  8  1  0  0  0  0
  5  6  2  6  0  0  0
  5  7  1  0  0  0  0
  5  8  1  0  0  0  0
  5  9  1  0  0  0  0
  9 10  1  0  0  0  0
 10 11  1  0  0  0  0
 10 28  1  0  0  0  0
 10 29  1  0  0  0  0
 11 12  1  0  0  0  0
 11 13  1  0  0  0  0
 11 30  1  6  0  0  0
 12 17  1  0  0  0  0
 13 14  1  0  0  0  0
 13 15  1  0  0  0  0
 13 31  1  6  0  0  0
 14 32  1  0  0  0  0
 15 16  1  0  0  0  0
 15 17  1  0  0  0  0
 15 33  1  6  0  0  0
 16 34  1  0  0  0  0
 17 18  1  0  0  0  0
 17 35  1  1  0  0  0
 18 19  2  0  0  0  0
 18 27  1  0  0  0  0
 19 20  1  0  0  0  0
 19 36  1  0  0  0  0
 20 21  1  0  0  0  0
 21 22  2  0  0  0  0
 21 27  1  0  0  0  0
 22 23  1  0  0  0  0
 22 24  1  0  0  0  0
 23 37  1  0  0  0  0
 23 38  1  0  0  0  0
 24 25  2  0  0  0  0
 25 26  1  0  0  0  0
 25 39  1  0  0  0  0
 26 27  2  0  0  0  0
M  CHG  1  18   1
M  END
$$$$
