AM3
 OpenBabel04051919583D

 51 52  0  0  1  0  0  0  0  0999 V2000
    0.4324   -0.0253   11.7794 O   0  0  0  0  0  0  0  0  0  0  0  0
    1.6904    0.3549   11.2353 C   0  0  1  0  0  0  0  0  0  0  0  0
    1.8312    1.8759   11.1358 C   0  0  1  0  0  0  0  0  0  0  0  0
    0.6959    2.5959   10.4385 C   0  0  0  0  0  0  0  0  0  0  0  0
    0.2382    3.6417   11.3384 O   0  0  0  0  0  0  0  0  0  0  0  0
    2.8729   -0.1379   12.0908 C   0  0  2  0  0  0  0  0  0  0  0  0
    2.9066   -1.5569   12.1907 O   0  0  0  0  0  0  0  0  0  0  0  0
    2.8988    0.4330   13.5086 C   0  0  1  0  0  0  0  0  0  0  0  0
    4.2262    0.1933   14.0584 O   0  0  0  0  0  0  0  0  0  0  0  0
    2.5935    1.9484   13.5784 C   0  0  2  0  0  0  0  0  0  0  0  0
    1.8170    2.1446   14.7403 O   0  0  0  0  0  0  0  0  0  0  0  0
    1.8213    2.5241   12.4490 N   0  0  0  0  0  0  0  0  0  0  0  0
    0.9071    3.4661   12.4879 C   0  0  0  0  0  0  0  0  0  0  0  0
    0.6220    4.3176   13.5231 N   0  0  0  0  0  0  0  0  0  0  0  0
   -0.7070    4.6999   14.0908 C   0  0  0  0  0  0  0  0  0  0  0  0
   -1.0886    6.1132   13.7038 C   0  0  0  0  0  0  0  0  0  0  0  0
   -1.6743    6.9707   14.8278 C   0  0  0  0  0  0  0  0  0  0  0  0
   -3.1369    6.6758   15.1347 C   0  0  0  0  0  0  0  0  0  0  0  0
   -3.8529    7.9679   15.5192 C   0  0  0  0  0  0  0  0  0  0  0  0
   -5.1989    7.6542   16.1520 C   0  0  0  0  0  0  0  0  0  0  0  0
   -5.9022    8.9222   16.6057 C   0  0  0  0  0  0  0  0  0  0  0  0
   -6.7880    9.4566   15.4998 C   0  0  0  0  0  0  0  0  0  0  0  0
   -0.2927    0.2584   11.1861 H   0  0  0  0  0  0  0  0  0  0  0  0
    1.7711   -0.1019   10.2413 H   0  0  0  0  0  0  0  0  0  0  0  0
    2.7750    2.1134   10.6459 H   0  0  0  0  0  0  0  0  0  0  0  0
   -0.1607    1.9478   10.1974 H   0  0  0  0  0  0  0  0  0  0  0  0
    1.0212    3.0150    9.4642 H   0  0  0  0  0  0  0  0  0  0  0  0
    3.7987    0.1652   11.5861 H   0  0  0  0  0  0  0  0  0  0  0  0
    2.9889   -1.9460   11.3059 H   0  0  0  0  0  0  0  0  0  0  0  0
    2.1972   -0.1256   14.1499 H   0  0  0  0  0  0  0  0  0  0  0  0
    4.9006    0.6226   13.4944 H   0  0  0  0  0  0  0  0  0  0  0  0
    3.5445    2.4881   13.6653 H   0  0  0  0  0  0  0  0  0  0  0  0
    1.6321    3.0914   14.7993 H   0  0  0  0  0  0  0  0  0  0  0  0
   -0.6334    4.6245   15.1970 H   0  0  0  0  0  0  0  0  0  0  0  0
   -1.4704    3.9853   13.7701 H   0  0  0  0  0  0  0  0  0  0  0  0
   -1.8234    6.0490   12.8992 H   0  0  0  0  0  0  0  0  0  0  0  0
   -0.1982    6.6215   13.3338 H   0  0  0  0  0  0  0  0  0  0  0  0
   -1.5894    8.0219   14.5225 H   0  0  0  0  0  0  0  0  0  0  0  0
   -1.0901    6.8405   15.7463 H   0  0  0  0  0  0  0  0  0  0  0  0
   -3.2019    5.9619   15.9644 H   0  0  0  0  0  0  0  0  0  0  0  0
   -3.6373    6.2355   14.2658 H   0  0  0  0  0  0  0  0  0  0  0  0
   -3.9949    8.5880   14.6235 H   0  0  0  0  0  0  0  0  0  0  0  0
   -3.2348    8.5385   16.2253 H   0  0  0  0  0  0  0  0  0  0  0  0
   -5.0402    7.0033   17.0186 H   0  0  0  0  0  0  0  0  0  0  0  0
   -5.8216    7.1167   15.4284 H   0  0  0  0  0  0  0  0  0  0  0  0
   -5.1673    9.6849   16.8843 H   0  0  0  0  0  0  0  0  0  0  0  0
   -6.5197    8.7005   17.4828 H   0  0  0  0  0  0  0  0  0  0  0  0
   -7.2958   10.3651   15.8314 H   0  0  0  0  0  0  0  0  0  0  0  0
   -7.5428    8.7113   15.2273 H   0  0  0  0  0  0  0  0  0  0  0  0
   -6.1896    9.6878   14.6139 H   0  0  0  0  0  0  0  0  0  0  0  0
    1.4075    4.7142   14.0208 H   0  0  0  0  0  0  0  0  0  0  0  0
  1  2  1  0  0  0  0
  1 23  1  0  0  0  0
  2  3  1  0  0  0  0
  2  6  1  0  0  0  0
  2 24  1  6  0  0  0
  3  4  1  0  0  0  0
  3 12  1  0  0  0  0
  3 25  1  6  0  0  0
  4  5  1  0  0  0  0
  4 26  1  0  0  0  0
  4 27  1  0  0  0  0
  5 13  1  0  0  0  0
  6  7  1  0  0  0  0
  6  8  1  0  0  0  0
  6 28  1  6  0  0  0
  7 29  1  0  0  0  0
  8  9  1  0  0  0  0
  8 10  1  0  0  0  0
  8 30  1  1  0  0  0
  9 31  1  0  0  0  0
 10 11  1  0  0  0  0
 10 12  1  0  0  0  0
 10 32  1  1  0  0  0
 11 33  1  0  0  0  0
 12 13  1  0  0  0  0
 13 14  2  0  0  0  0
 14 15  1  0  0  0  0
 14 51  1  0  0  0  0
 15 16  1  0  0  0  0
 15 34  1  0  0  0  0
 15 35  1  0  0  0  0
 16 17  1  0  0  0  0
 16 36  1  0  0  0  0
 16 37  1  0  0  0  0
 17 18  1  0  0  0  0
 17 38  1  0  0  0  0
 17 39  1  0  0  0  0
 18 19  1  0  0  0  0
 18 40  1  0  0  0  0
 18 41  1  0  0  0  0
 19 20  1  0  0  0  0
 19 42  1  0  0  0  0
 19 43  1  0  0  0  0
 20 21  1  0  0  0  0
 20 44  1  0  0  0  0
 20 45  1  0  0  0  0
 21 22  1  0  0  0  0
 21 46  1  0  0  0  0
 21 47  1  0  0  0  0
 22 48  1  0  0  0  0
 22 49  1  0  0  0  0
 22 50  1  0  0  0  0
M  END
$$$$
