AMF
 OpenBabel04051919583D

 51 52  0  0  1  0  0  0  0  0999 V2000
    0.6975    7.4978   14.3273 O   0  0  0  0  0  0  0  0  0  0  0  0
    1.6016    6.6563   13.6186 C   0  0  2  0  0  0  0  0  0  0  0  0
    0.9817    6.2833   12.2676 C   0  0  1  0  0  0  0  0  0  0  0  0
    0.5583    7.5080   11.4582 C   0  0  0  0  0  0  0  0  0  0  0  0
    0.6882    6.9689    9.7562 S   0  0  0  0  0  0  0  0  0  0  0  0
    1.8173    5.3333   14.3774 C   0  0  2  0  0  0  0  0  0  0  0  0
    2.3033    5.5443   15.7078 O   0  0  0  0  0  0  0  0  0  0  0  0
    2.8508    4.4789   13.6364 C   0  0  1  0  0  0  0  0  0  0  0  0
    2.7906    3.1389   14.1820 O   0  0  0  0  0  0  0  0  0  0  0  0
    2.6938    4.3954   12.0865 C   0  0  2  0  0  0  0  0  0  0  0  0
    3.9652    4.3538   11.4616 O   0  0  0  0  0  0  0  0  0  0  0  0
    1.9293    5.4868   11.4629 N   0  0  0  0  0  0  0  0  0  0  0  0
    1.8374    5.7214   10.1434 C   0  0  0  0  0  0  0  0  0  0  0  0
    2.4988    5.0981    9.1799 N   0  0  0  0  0  0  0  0  0  0  0  0
    2.3695    5.3517    7.7146 C   0  0  0  0  0  0  0  0  0  0  0  0
    3.6238    6.0286    7.1852 C   0  0  0  0  0  0  0  0  0  0  0  0
    3.6021    6.0828    5.6574 C   0  0  0  0  0  0  0  0  0  0  0  0
    4.8535    6.7818    5.1524 C   0  0  0  0  0  0  0  0  0  0  0  0
    4.9020    6.8053    3.6306 C   0  0  0  0  0  0  0  0  0  0  0  0
    6.3400    6.9718    3.1512 C   0  0  0  0  0  0  0  0  0  0  0  0
    6.4058    7.8892    1.9398 C   0  0  0  0  0  0  0  0  0  0  0  0
    7.8181    8.4093    1.7577 C   0  0  0  0  0  0  0  0  0  0  0  0
    0.6381    8.3677   13.8913 H   0  0  0  0  0  0  0  0  0  0  0  0
    2.5598    7.1766   13.5005 H   0  0  0  0  0  0  0  0  0  0  0  0
    0.0831    5.6723   12.4398 H   0  0  0  0  0  0  0  0  0  0  0  0
    1.2322    8.3560   11.6007 H   0  0  0  0  0  0  0  0  0  0  0  0
   -0.4664    7.8138   11.6815 H   0  0  0  0  0  0  0  0  0  0  0  0
    0.8669    4.8011   14.4882 H   0  0  0  0  0  0  0  0  0  0  0  0
    2.4694    4.6640   16.1146 H   0  0  0  0  0  0  0  0  0  0  0  0
    3.8572    4.8359   13.9008 H   0  0  0  0  0  0  0  0  0  0  0  0
    1.9048    2.7586   14.0245 H   0  0  0  0  0  0  0  0  0  0  0  0
    2.2007    3.4617   11.8489 H   0  0  0  0  0  0  0  0  0  0  0  0
    4.5166    3.7316   11.9923 H   0  0  0  0  0  0  0  0  0  0  0  0
    1.4984    5.9736    7.4888 H   0  0  0  0  0  0  0  0  0  0  0  0
    2.2119    4.3911    7.2280 H   0  0  0  0  0  0  0  0  0  0  0  0
    4.5098    5.4826    7.5209 H   0  0  0  0  0  0  0  0  0  0  0  0
    3.6978    7.0440    7.5888 H   0  0  0  0  0  0  0  0  0  0  0  0
    2.7092    6.6084    5.3001 H   0  0  0  0  0  0  0  0  0  0  0  0
    3.5650    5.0650    5.2493 H   0  0  0  0  0  0  0  0  0  0  0  0
    5.7392    6.2707    5.5520 H   0  0  0  0  0  0  0  0  0  0  0  0
    4.8810    7.8131    5.5264 H   0  0  0  0  0  0  0  0  0  0  0  0
    4.2700    7.6289    3.2761 H   0  0  0  0  0  0  0  0  0  0  0  0
    4.4875    5.8829    3.2081 H   0  0  0  0  0  0  0  0  0  0  0  0
    6.7582    5.9885    2.8951 H   0  0  0  0  0  0  0  0  0  0  0  0
    6.9682    7.3768    3.9539 H   0  0  0  0  0  0  0  0  0  0  0  0
    5.7341    8.7448    2.0750 H   0  0  0  0  0  0  0  0  0  0  0  0
    6.0788    7.3498    1.0443 H   0  0  0  0  0  0  0  0  0  0  0  0
    7.8654    9.0825    0.8998 H   0  0  0  0  0  0  0  0  0  0  0  0
    8.5158    7.5822    1.6031 H   0  0  0  0  0  0  0  0  0  0  0  0
    8.1346    8.9658    2.6477 H   0  0  0  0  0  0  0  0  0  0  0  0
    3.1769    4.4134    9.4925 H   0  0  0  0  0  0  0  0  0  0  0  0
  1  2  1  0  0  0  0
  1 23  1  0  0  0  0
  2  3  1  0  0  0  0
  2  6  1  0  0  0  0
  2 24  1  6  0  0  0
  3  4  1  0  0  0  0
  3 12  1  0  0  0  0
  3 25  1  1  0  0  0
  4  5  1  0  0  0  0
  4 26  1  0  0  0  0
  4 27  1  0  0  0  0
  5 13  1  0  0  0  0
  6  7  1  0  0  0  0
  6  8  1  0  0  0  0
  6 28  1  1  0  0  0
  7 29  1  0  0  0  0
  8  9  1  0  0  0  0
  8 10  1  0  0  0  0
  8 30  1  1  0  0  0
  9 31  1  0  0  0  0
 10 11  1  0  0  0  0
 10 12  1  0  0  0  0
 10 32  1  6  0  0  0
 11 33  1  0  0  0  0
 12 13  1  0  0  0  0
 13 14  2  0  0  0  0
 14 15  1  0  0  0  0
 14 51  1  0  0  0  0
 15 16  1  0  0  0  0
 15 34  1  0  0  0  0
 15 35  1  0  0  0  0
 16 17  1  0  0  0  0
 16 36  1  0  0  0  0
 16 37  1  0  0  0  0
 17 18  1  0  0  0  0
 17 38  1  0  0  0  0
 17 39  1  0  0  0  0
 18 19  1  0  0  0  0
 18 40  1  0  0  0  0
 18 41  1  0  0  0  0
 19 20  1  0  0  0  0
 19 42  1  0  0  0  0
 19 43  1  0  0  0  0
 20 21  1  0  0  0  0
 20 44  1  0  0  0  0
 20 45  1  0  0  0  0
 21 22  1  0  0  0  0
 21 46  1  0  0  0  0
 21 47  1  0  0  0  0
 22 48  1  0  0  0  0
 22 49  1  0  0  0  0
 22 50  1  0  0  0  0
M  END
$$$$
