AMP
 OpenBabel04051918593D

 35 37  0  0  1  0  0  0  0  0999 V2000
  114.2894   58.8489   21.5023 P   0  0  0  0  0  0  0  0  0  0  0  0
  113.8295   59.8118   20.4179 O   0  0  0  0  0  0  0  0  0  0  0  0
  113.3159   57.7203   21.8101 O   0  0  0  0  0  0  0  0  0  0  0  0
  114.9201   59.5052   22.7190 O   0  0  0  0  0  0  0  0  0  0  0  0
  115.5345   58.0720   20.7861 O   0  0  0  0  0  0  0  0  0  0  0  0
  116.6363   58.8359   20.3465 C   0  0  0  0  0  0  0  0  0  0  0  0
  117.3121   58.1294   19.1648 C   0  0  1  0  0  0  0  0  0  0  0  0
  117.9501   56.8865   19.5752 O   0  0  0  0  0  0  0  0  0  0  0  0
  116.3702   57.7730   18.0117 C   0  0  1  0  0  0  0  0  0  0  0  0
  116.1669   58.8557   17.1040 O   0  0  0  0  0  0  0  0  0  0  0  0
  117.1301   56.6333   17.3475 C   0  0  1  0  0  0  0  0  0  0  0  0
  118.2239   57.1248   16.5426 O   0  0  0  0  0  0  0  0  0  0  0  0
  117.6608   55.8861   18.5680 C   0  0  2  0  0  0  0  0  0  0  0  0
  116.7186   54.9056   19.0889 N   0  3  0  0  0  0  0  0  0  0  0  0
  115.9213   55.0099   20.1996 C   0  0  0  0  0  0  0  0  0  0  0  0
  115.1459   53.9549   20.3533 N   0  0  0  0  0  0  0  0  0  0  0  0
  115.4315   53.1485   19.2927 C   0  0  0  0  0  0  0  0  0  0  0  0
  114.9274   51.9009   18.9002 C   0  0  0  0  0  0  0  0  0  0  0  0
  113.9684   51.2242   19.6342 N   0  0  0  0  0  0  0  0  0  0  0  0
  115.4109   51.3142   17.8003 N   0  0  0  0  0  0  0  0  0  0  0  0
  116.3790   51.9793   17.1201 C   0  0  0  0  0  0  0  0  0  0  0  0
  116.9591   53.1636   17.3886 N   0  0  0  0  0  0  0  0  0  0  0  0
  116.4350   53.7037   18.4951 C   0  0  0  0  0  0  0  0  0  0  0  0
  117.3504   58.9173   21.1723 H   0  0  0  0  0  0  0  0  0  0  0  0
  116.3235   59.8408   20.0460 H   0  0  0  0  0  0  0  0  0  0  0  0
  118.1107   58.7845   18.7934 H   0  0  0  0  0  0  0  0  0  0  0  0
  115.3994   57.4084   18.3659 H   0  0  0  0  0  0  0  0  0  0  0  0
  115.6771   59.5213   17.6392 H   0  0  0  0  0  0  0  0  0  0  0  0
  116.5075   56.0308   16.6805 H   0  0  0  0  0  0  0  0  0  0  0  0
  117.8196   57.8088   15.9741 H   0  0  0  0  0  0  0  0  0  0  0  0
  118.5983   55.3587   18.3506 H   0  0  0  0  0  0  0  0  0  0  0  0
  115.9368   55.8681   20.8587 H   0  0  0  0  0  0  0  0  0  0  0  0
  113.5856   50.3803   19.2560 H   0  0  0  0  0  0  0  0  0  0  0  0
  113.5332   51.7350   20.4006 H   0  0  0  0  0  0  0  0  0  0  0  0
  116.7568   51.4717   16.2309 H   0  0  0  0  0  0  0  0  0  0  0  0
  1  2  2  0  0  0  0
  1  3  1  0  0  0  0
  1  4  1  0  0  0  0
  1  5  1  0  0  0  0
  5  6  1  0  0  0  0
  6  7  1  0  0  0  0
  6 24  1  0  0  0  0
  6 25  1  0  0  0  0
  7  8  1  0  0  0  0
  7  9  1  0  0  0  0
  7 26  1  6  0  0  0
  8 13  1  0  0  0  0
  9 10  1  0  0  0  0
  9 11  1  0  0  0  0
  9 27  1  1  0  0  0
 10 28  1  0  0  0  0
 11 12  1  0  0  0  0
 11 13  1  0  0  0  0
 11 29  1  6  0  0  0
 12 30  1  0  0  0  0
 13 14  1  0  0  0  0
 13 31  1  6  0  0  0
 14 15  2  0  0  0  0
 14 23  1  0  0  0  0
 15 16  1  0  0  0  0
 15 32  1  0  0  0  0
 16 17  1  0  0  0  0
 17 18  2  0  0  0  0
 17 23  1  0  0  0  0
 18 19  1  0  0  0  0
 18 20  1  0  0  0  0
 19 33  1  0  0  0  0
 19 34  1  0  0  0  0
 20 21  2  0  0  0  0
 21 22  1  0  0  0  0
 21 35  1  0  0  0  0
 22 23  2  0  0  0  0
M  CHG  1  14   1
M  END
$$$$
