AQZ
 OpenBabel04051917253D

 81 86  0  0  0  0  0  0  0  0999 V2000
   -3.9907   -1.7877   26.9390 C   0  0  0  0  0  0  0  0  0  0  0  0
   -3.8731   -0.5136   26.3143 O   0  0  0  0  0  0  0  0  0  0  0  0
   -3.9284   -0.4211   24.9422 C   0  0  0  0  0  0  0  0  0  0  0  0
   -3.9000   -1.4848   24.0500 C   0  0  0  0  0  0  0  0  0  0  0  0
   -3.9507   -1.2854   22.6596 C   0  0  0  0  0  0  0  0  0  0  0  0
   -3.9181   -2.3690   21.8835 N   0  0  0  0  0  0  0  0  0  0  0  0
   -3.9772   -2.1666   20.5636 C   0  0  0  0  0  0  0  0  0  0  0  0
   -4.0634   -0.9844   19.9650 N   0  0  0  0  0  0  0  0  0  0  0  0
   -4.0640    0.1115   20.7501 C   0  0  0  0  0  0  0  0  0  0  0  0
   -4.1379    1.3737   20.1457 N   0  0  0  0  0  0  0  0  0  0  0  0
   -4.4252    1.6171   18.7964 C   0  0  0  0  0  0  0  0  0  0  0  0
   -3.4370    2.2106   17.9860 C   0  0  0  0  0  0  0  0  0  0  0  0
   -3.6908    2.5075   16.6496 C   0  0  0  0  0  0  0  0  0  0  0  0
   -2.7160    3.1370   15.8410 N   0  0  0  0  0  0  0  0  0  0  0  0
   -1.3436    2.8664   15.9277 C   0  0  0  0  0  0  0  0  0  0  0  0
   -0.8260    2.0916   16.6907 O   0  0  0  0  0  0  0  0  0  0  0  0
   -0.5023    3.5732   14.8841 C   0  0  0  0  0  0  0  0  0  0  0  0
   -0.7712    4.8049   14.2990 C   0  0  0  0  0  0  0  0  0  0  0  0
    0.1387    5.2818   13.3635 C   0  0  0  0  0  0  0  0  0  0  0  0
    1.2700    4.6159   12.9862 N   0  0  0  0  0  0  0  0  0  0  0  0
    1.5339    3.4121   13.5407 C   0  0  0  0  0  0  0  0  0  0  0  0
    0.6396    2.8875   14.4809 C   0  0  0  0  0  0  0  0  0  0  0  0
    2.6580    2.6998   13.1632 N   0  0  0  0  0  0  0  0  0  0  0  0
    3.8556    3.3975   12.6436 C   0  0  0  0  0  0  0  0  0  0  0  0
    4.9142    2.4267   12.0342 C   0  0  0  0  0  0  0  0  0  0  0  0
    5.0371    1.1973   12.7781 O   0  0  0  0  0  0  0  0  0  0  0  0
    3.7292    0.6139   12.8473 C   0  0  0  0  0  0  0  0  0  0  0  0
    2.9395    1.4329   13.8431 C   0  0  0  0  0  0  0  0  0  0  0  0
   -4.9546    2.2244   16.1251 C   0  0  0  0  0  0  0  0  0  0  0  0
   -5.9406    1.6239   16.9173 C   0  0  0  0  0  0  0  0  0  0  0  0
   -5.6900    1.3169   18.2525 C   0  0  0  0  0  0  0  0  0  0  0  0
   -6.8258    0.6940   19.0213 C   0  0  0  0  0  0  0  0  0  0  0  0
   -4.0134    0.0200   22.1613 C   0  0  0  0  0  0  0  0  0  0  0  0
   -4.0436    1.1111   23.0620 C   0  0  0  0  0  0  0  0  0  0  0  0
   -3.9937    0.8852   24.4342 C   0  0  0  0  0  0  0  0  0  0  0  0
   -4.0128    1.8726   25.3960 O   0  0  0  0  0  0  0  0  0  0  0  0
   -3.8477    3.1984   24.9275 C   0  0  0  0  0  0  0  0  0  0  0  0
   -3.8190    4.1946   26.0974 C   0  0  0  0  0  0  0  0  0  0  0  0
   -2.9771    3.7148   27.2352 N   0  3  0  0  0  0  0  0  0  0  0  0
   -3.1996    4.3083   28.6011 C   0  0  0  0  0  0  0  0  0  0  0  0
   -2.2303    3.4553   29.3818 C   0  0  0  0  0  0  0  0  0  0  0  0
   -0.9917    3.4827   28.4941 C   0  0  0  0  0  0  0  0  0  0  0  0
   -1.4844    3.7246   27.0695 C   0  0  0  0  0  0  0  0  0  0  0  0
   -3.9318   -1.6574   28.0330 H   0  0  0  0  0  0  0  0  0  0  0  0
   -3.1712   -2.4445   26.6363 H   0  0  0  0  0  0  0  0  0  0  0  0
   -4.9574   -2.2442   26.7077 H   0  0  0  0  0  0  0  0  0  0  0  0
   -3.8286   -2.5086   24.3900 H   0  0  0  0  0  0  0  0  0  0  0  0
   -3.9492   -3.0492   19.9315 H   0  0  0  0  0  0  0  0  0  0  0  0
   -3.9508    2.1856   20.7019 H   0  0  0  0  0  0  0  0  0  0  0  0
   -2.4550    2.4376   18.3956 H   0  0  0  0  0  0  0  0  0  0  0  0
   -3.0479    3.7529   15.1199 H   0  0  0  0  0  0  0  0  0  0  0  0
   -1.6474    5.3929   14.5412 H   0  0  0  0  0  0  0  0  0  0  0  0
   -0.0231    6.2451   12.8762 H   0  0  0  0  0  0  0  0  0  0  0  0
    0.8010    1.9182   14.9350 H   0  0  0  0  0  0  0  0  0  0  0  0
    4.3369    3.9331   13.4696 H   0  0  0  0  0  0  0  0  0  0  0  0
    3.5819    4.1140   11.8636 H   0  0  0  0  0  0  0  0  0  0  0  0
    5.9062    2.8976   11.9944 H   0  0  0  0  0  0  0  0  0  0  0  0
    4.6400    2.1511   11.0068 H   0  0  0  0  0  0  0  0  0  0  0  0
    3.7940   -0.4308   13.1572 H   0  0  0  0  0  0  0  0  0  0  0  0
    3.2496    0.6650   11.8618 H   0  0  0  0  0  0  0  0  0  0  0  0
    2.0347    0.8770   14.0947 H   0  0  0  0  0  0  0  0  0  0  0  0
    3.5135    1.6097   14.7631 H   0  0  0  0  0  0  0  0  0  0  0  0
   -5.1883    2.3986   15.0789 H   0  0  0  0  0  0  0  0  0  0  0  0
   -6.9185    1.4047   16.4948 H   0  0  0  0  0  0  0  0  0  0  0  0
   -6.5525    0.4860   20.0558 H   0  0  0  0  0  0  0  0  0  0  0  0
   -7.1324   -0.2487   18.5520 H   0  0  0  0  0  0  0  0  0  0  0  0
   -7.6887    1.3707   19.0327 H   0  0  0  0  0  0  0  0  0  0  0  0
   -4.0954    2.1242   22.6516 H   0  0  0  0  0  0  0  0  0  0  0  0
   -4.6903    3.4539   24.2806 H   0  0  0  0  0  0  0  0  0  0  0  0
   -2.9115    3.2663   24.3670 H   0  0  0  0  0  0  0  0  0  0  0  0
   -4.8302    4.3276   26.4934 H   0  0  0  0  0  0  0  0  0  0  0  0
   -3.4158    5.1526   25.7659 H   0  0  0  0  0  0  0  0  0  0  0  0
   -4.2407    4.1942   28.9029 H   0  0  0  0  0  0  0  0  0  0  0  0
   -2.9026    5.3638   28.5940 H   0  0  0  0  0  0  0  0  0  0  0  0
   -2.6153    2.4224   29.4847 H   0  0  0  0  0  0  0  0  0  0  0  0
   -2.0453    3.8497   30.3823 H   0  0  0  0  0  0  0  0  0  0  0  0
   -0.4423    2.5402   28.5524 H   0  0  0  0  0  0  0  0  0  0  0  0
   -0.3370    4.3008   28.8035 H   0  0  0  0  0  0  0  0  0  0  0  0
   -1.1769    4.7018   26.6804 H   0  0  0  0  0  0  0  0  0  0  0  0
   -1.1992    2.9291   26.3792 H   0  0  0  0  0  0  0  0  0  0  0  0
   -3.2332    2.7192   27.3322 H   0  0  0  0  0  0  0  0  0  0  0  0
  1  2  1  0  0  0  0
  1 44  1  0  0  0  0
  1 45  1  0  0  0  0
  1 46  1  0  0  0  0
  2  3  1  0  0  0  0
  3  4  2  0  0  0  0
  3 35  1  0  0  0  0
  4  5  1  0  0  0  0
  4 47  1  0  0  0  0
  5  6  2  0  0  0  0
  5 33  1  0  0  0  0
  6  7  1  0  0  0  0
  7  8  2  0  0  0  0
  7 48  1  0  0  0  0
  8  9  1  0  0  0  0
  9 10  1  0  0  0  0
  9 33  2  0  0  0  0
 10 11  1  0  0  0  0
 10 49  1  0  0  0  0
 11 12  2  0  0  0  0
 11 31  1  0  0  0  0
 12 13  1  0  0  0  0
 12 50  1  0  0  0  0
 13 14  1  0  0  0  0
 13 29  2  0  0  0  0
 14 15  1  0  0  0  0
 14 51  1  0  0  0  0
 15 16  2  0  0  0  0
 15 17  1  0  0  0  0
 17 18  2  0  0  0  0
 17 22  1  0  0  0  0
 18 19  1  0  0  0  0
 18 52  1  0  0  0  0
 19 20  2  0  0  0  0
 19 53  1  0  0  0  0
 20 21  1  0  0  0  0
 21 22  2  0  0  0  0
 21 23  1  0  0  0  0
 22 54  1  0  0  0  0
 23 24  1  0  0  0  0
 23 28  1  0  0  0  0
 24 25  1  0  0  0  0
 24 55  1  0  0  0  0
 24 56  1  0  0  0  0
 25 26  1  0  0  0  0
 25 57  1  0  0  0  0
 25 58  1  0  0  0  0
 26 27  1  0  0  0  0
 27 28  1  0  0  0  0
 27 59  1  0  0  0  0
 27 60  1  0  0  0  0
 28 61  1  0  0  0  0
 28 62  1  0  0  0  0
 29 30  1  0  0  0  0
 29 63  1  0  0  0  0
 30 31  2  0  0  0  0
 30 64  1  0  0  0  0
 31 32  1  0  0  0  0
 32 65  1  0  0  0  0
 32 66  1  0  0  0  0
 32 67  1  0  0  0  0
 33 34  1  0  0  0  0
 34 35  2  0  0  0  0
 34 68  1  0  0  0  0
 35 36  1  0  0  0  0
 36 37  1  0  0  0  0
 37 38  1  0  0  0  0
 37 69  1  0  0  0  0
 37 70  1  0  0  0  0
 38 39  1  0  0  0  0
 38 71  1  0  0  0  0
 38 72  1  0  0  0  0
 39 40  1  0  0  0  0
 39 43  1  0  0  0  0
 39 81  1  0  0  0  0
 40 41  1  0  0  0  0
 40 73  1  0  0  0  0
 40 74  1  0  0  0  0
 41 42  1  0  0  0  0
 41 75  1  0  0  0  0
 41 76  1  0  0  0  0
 42 43  1  0  0  0  0
 42 77  1  0  0  0  0
 42 78  1  0  0  0  0
 43 79  1  0  0  0  0
 43 80  1  0  0  0  0
M  CHG  1  39   1
M  END
$$$$
