AR6
 OpenBabel04051917253D

 57 60  0  0  1  0  0  0  0  0999 V2000
  -17.0486   22.4442   -3.0893 N   0  0  0  0  0  0  0  0  0  0  0  0
  -17.3772   23.6282   -2.5242 C   0  0  0  0  0  0  0  0  0  0  0  0
  -17.8936   23.8597   -1.3044 N   0  0  0  0  0  0  0  0  0  0  0  0
  -18.0277   22.7161   -0.6124 C   0  0  0  0  0  0  0  0  0  0  0  0
  -17.7486   21.4313   -1.0556 C   0  0  0  0  0  0  0  0  0  0  0  0
  -17.2394   21.3176   -2.3625 C   0  0  0  0  0  0  0  0  0  0  0  0
  -16.9544   20.1053   -2.9650 N   0  0  0  0  0  0  0  0  0  0  0  0
  -18.0703   20.5033   -0.0842 N   0  0  0  0  0  0  0  0  0  0  0  0
  -18.4748   21.2190    0.9486 C   0  0  0  0  0  0  0  0  0  0  0  0
  -18.4769   22.5693    0.6749 N   0  3  0  0  0  0  0  0  0  0  0  0
  -18.8916   23.6884    1.4869 C   0  0  1  0  0  0  0  0  0  0  0  0
  -19.8507   23.4338    2.6586 C   0  0  2  0  0  0  0  0  0  0  0  0
  -21.1949   23.2509    2.2162 O   0  0  0  0  0  0  0  0  0  0  0  0
  -19.6426   24.7044    3.4927 C   0  0  2  0  0  0  0  0  0  0  0  0
  -20.5308   25.7598    3.0624 O   0  0  0  0  0  0  0  0  0  0  0  0
  -17.7481   24.3317    2.0508 O   0  0  0  0  0  0  0  0  0  0  0  0
  -18.1715   25.0742    3.2244 C   0  0  2  0  0  0  0  0  0  0  0  0
  -17.2089   24.7867    4.3818 C   0  0  0  0  0  0  0  0  0  0  0  0
  -17.6463   23.6619    5.1142 O   0  0  0  0  0  0  0  0  0  0  0  0
  -16.5431   22.6629    5.7669 P   0  0  2  0  0  0  0  0  0  0  0  0
  -15.8888   21.9620    4.5951 O   0  0  0  0  0  0  0  0  0  0  0  0
  -17.2632   21.8232    6.7935 O   0  0  0  0  0  0  0  0  0  0  0  0
  -15.4835   23.6786    6.3894 O   0  0  0  0  0  0  0  0  0  0  0  0
  -15.3453   24.4820    7.7664 P   0  0  2  0  0  0  0  0  0  0  0  0
  -16.6775   24.9602    8.2824 O   0  0  0  0  0  0  0  0  0  0  0  0
  -14.2336   25.5015    7.6061 O   0  0  0  0  0  0  0  0  0  0  0  0
  -14.7616   23.3195    8.7519 O   0  0  0  0  0  0  0  0  0  0  0  0
  -13.4158   22.8942    8.5559 C   0  0  0  0  0  0  0  0  0  0  0  0
  -14.0739   20.5084    8.4711 O   0  0  0  0  0  0  0  0  0  0  0  0
  -13.3768   18.3183    8.1969 O   0  0  0  0  0  0  0  0  0  0  0  0
  -13.2674   19.6443    7.6794 C   0  0  2  0  0  0  0  0  0  0  0  0
  -10.8162   19.1445    7.7103 O   0  0  0  0  0  0  0  0  0  0  0  0
  -11.8217   20.1594    7.7751 C   0  0  2  0  0  0  0  0  0  0  0  0
  -11.5917   19.9843   10.1873 O   0  0  0  0  0  0  0  0  0  0  0  0
  -11.8285   20.9072    9.1048 C   0  0  2  0  0  0  0  0  0  0  0  0
  -13.2507   21.4873    9.1580 C   0  0  1  0  0  0  0  0  0  0  0  0
  -17.2123   24.5103   -3.1323 H   0  0  0  0  0  0  0  0  0  0  0  0
  -16.9513   19.2861   -2.3707 H   0  0  0  0  0  0  0  0  0  0  0  0
  -16.4531   20.1349   -3.8389 H   0  0  0  0  0  0  0  0  0  0  0  0
  -18.7835   20.8203    1.9022 H   0  0  0  0  0  0  0  0  0  0  0  0
  -19.3679   24.3993    0.8055 H   0  0  0  0  0  0  0  0  0  0  0  0
  -19.5445   22.5546    3.2406 H   0  0  0  0  0  0  0  0  0  0  0  0
  -21.7299   23.1314    3.0207 H   0  0  0  0  0  0  0  0  0  0  0  0
  -19.8772   24.5450    4.5488 H   0  0  0  0  0  0  0  0  0  0  0  0
  -20.3469   25.9617    2.1317 H   0  0  0  0  0  0  0  0  0  0  0  0
  -18.0763   26.1305    2.9394 H   0  0  0  0  0  0  0  0  0  0  0  0
  -17.2144   25.6406    5.0697 H   0  0  0  0  0  0  0  0  0  0  0  0
  -16.1904   24.6466    4.0054 H   0  0  0  0  0  0  0  0  0  0  0  0
  -12.7712   23.6018    9.0937 H   0  0  0  0  0  0  0  0  0  0  0  0
  -13.1520   22.9266    7.4951 H   0  0  0  0  0  0  0  0  0  0  0  0
  -13.4518   18.4240    9.1535 H   0  0  0  0  0  0  0  0  0  0  0  0
  -13.6147   19.6302    6.6412 H   0  0  0  0  0  0  0  0  0  0  0  0
  -11.0333   18.5011    8.4111 H   0  0  0  0  0  0  0  0  0  0  0  0
  -11.6427   20.8688    6.9678 H   0  0  0  0  0  0  0  0  0  0  0  0
  -12.4148   19.5025   10.3594 H   0  0  0  0  0  0  0  0  0  0  0  0
  -11.0364   21.6610    9.1621 H   0  0  0  0  0  0  0  0  0  0  0  0
  -13.6216   21.5141   10.1894 H   0  0  0  0  0  0  0  0  0  0  0  0
  1  2  2  0  0  0  0
  1  6  1  0  0  0  0
  2  3  1  0  0  0  0
  2 37  1  0  0  0  0
  3  4  2  0  0  0  0
  4  5  1  0  0  0  0
  4 10  1  0  0  0  0
  5  6  2  0  0  0  0
  5  8  1  0  0  0  0
  6  7  1  0  0  0  0
  7 38  1  0  0  0  0
  7 39  1  0  0  0  0
  8  9  1  0  0  0  0
  9 10  2  0  0  0  0
  9 40  1  0  0  0  0
 10 11  1  0  0  0  0
 11 12  1  0  0  0  0
 11 16  1  0  0  0  0
 11 41  1  6  0  0  0
 12 13  1  0  0  0  0
 12 14  1  0  0  0  0
 12 42  1  1  0  0  0
 13 43  1  0  0  0  0
 14 15  1  0  0  0  0
 14 17  1  0  0  0  0
 14 44  1  1  0  0  0
 15 45  1  0  0  0  0
 16 17  1  0  0  0  0
 17 18  1  0  0  0  0
 17 46  1  6  0  0  0
 18 19  1  0  0  0  0
 18 47  1  0  0  0  0
 18 48  1  0  0  0  0
 20 19  1  6  0  0  0
 20 21  2  0  0  0  0
 20 22  1  0  0  0  0
 20 23  1  0  0  0  0
 24 23  1  6  0  0  0
 24 25  2  0  0  0  0
 24 26  1  0  0  0  0
 24 27  1  0  0  0  0
 27 28  1  0  0  0  0
 28 36  1  0  0  0  0
 28 49  1  0  0  0  0
 28 50  1  0  0  0  0
 29 31  1  0  0  0  0
 29 36  1  0  0  0  0
 30 31  1  0  0  0  0
 30 51  1  0  0  0  0
 31 33  1  0  0  0  0
 31 52  1  6  0  0  0
 32 33  1  0  0  0  0
 32 53  1  0  0  0  0
 33 35  1  0  0  0  0
 33 54  1  6  0  0  0
 34 35  1  0  0  0  0
 34 55  1  0  0  0  0
 35 36  1  0  0  0  0
 35 56  1  1  0  0  0
 36 57  1  1  0  0  0
M  CHG  1  10   1
M  END
$$$$
