AR8
 OpenBabel04051920243D

119120  0  0  1  0  0  0  0  0999 V2000
   13.6768   48.5661   40.4603 O   0  0  0  0  0  0  0  0  0  0  0  0
   13.6913   47.3289   40.1762 C   0  0  0  0  0  0  0  0  0  0  0  0
   12.8702   46.6898   39.4589 O   0  0  0  0  0  0  0  0  0  0  0  0
   14.8277   46.5378   40.8141 C   0  0  0  0  0  0  0  0  0  0  0  0
   14.6452   45.0318   41.0166 C   0  0  0  0  0  0  0  0  0  0  0  0
   15.9792   44.3457   41.3625 C   0  0  1  0  0  0  0  0  0  0  0  0
   16.9614   44.4673   40.1129 C   0  0  0  0  0  0  0  0  0  0  0  0
   16.7577   43.6180   39.1837 O   0  0  0  0  0  0  0  0  0  0  0  0
   17.8389   45.3878   40.1520 O   0  0  0  0  0  0  0  0  0  0  0  0
   16.5308   44.8357   42.6404 N   0  0  0  0  0  0  0  0  0  0  0  0
   17.7936   44.4237   42.9561 C   0  0  0  0  0  0  0  0  0  0  0  0
   18.3055   43.4003   42.5109 O   0  0  0  0  0  0  0  0  0  0  0  0
   18.4179   45.2149   43.8667 N   0  0  0  0  0  0  0  0  0  0  0  0
   19.8238   44.9990   44.2448 C   0  0  2  0  0  0  0  0  0  0  0  0
   20.0795   45.6134   45.6456 C   0  0  0  0  0  0  0  0  0  0  0  0
   20.7397   44.9028   46.4595 O   0  0  0  0  0  0  0  0  0  0  0  0
   19.5619   46.7599   45.8328 O   0  0  0  0  0  0  0  0  0  0  0  0
   20.7029   45.6997   43.2070 C   0  0  0  0  0  0  0  0  0  0  0  0
   22.1897   45.3477   43.1582 C   0  0  0  0  0  0  0  0  0  0  0  0
   22.7551   46.1504   41.9818 C   0  0  0  0  0  0  0  0  0  0  0  0
   24.1672   45.7740   41.5913 C   0  0  0  0  0  0  0  0  0  0  0  0
   24.6781   46.7309   40.6358 N   0  3  0  0  0  0  0  0  0  0  0  0
   24.9240   48.0476   40.8644 C   0  0  0  0  0  0  0  0  0  0  0  0
   24.9437   46.3878   39.3705 N   0  0  0  0  0  0  0  0  0  0  0  0
   25.3205   47.4872   38.7327 N   0  0  0  0  0  0  0  0  0  0  0  0
   25.2974   48.5211   39.6335 C   0  0  0  0  0  0  0  0  0  0  0  0
   25.7827   49.8718   39.2917 C   0  0  0  0  0  0  0  0  0  0  0  0
   24.8982   50.9316   39.6714 O   0  0  0  0  0  0  0  0  0  0  0  0
   25.5770   52.0428   40.2585 C   0  0  0  0  0  0  0  0  0  0  0  0
   25.2029   52.2019   41.7340 C   0  0  0  0  0  0  0  0  0  0  0  0
   25.2835   53.5791   42.1217 O   0  0  0  0  0  0  0  0  0  0  0  0
   26.5817   53.9770   42.5545 C   0  0  0  0  0  0  0  0  0  0  0  0
   27.0475   55.1948   41.7828 C   0  0  0  0  0  0  0  0  0  0  0  0
   28.0179   55.9017   42.5554 O   0  0  0  0  0  0  0  0  0  0  0  0
   29.1891   56.2537   41.8236 C   0  0  0  0  0  0  0  0  0  0  0  0
   29.5001   57.7374   42.0002 C   0  0  0  0  0  0  0  0  0  0  0  0
   29.9026   58.0350   43.3449 O   0  0  0  0  0  0  0  0  0  0  0  0
   29.3610   59.2786   43.8069 C   0  0  0  0  0  0  0  0  0  0  0  0
   28.3478   59.0983   44.9514 C   0  0  0  0  0  0  0  0  0  0  0  0
   27.2459   58.2549   44.5912 O   0  0  0  0  0  0  0  0  0  0  0  0
   26.1098   58.9734   44.0856 C   0  0  0  0  0  0  0  0  0  0  0  0
   25.2082   58.0537   43.2475 C   0  0  0  0  0  0  0  0  0  0  0  0
   23.9723   57.6727   43.8774 O   0  0  0  0  0  0  0  0  0  0  0  0
   24.1940   56.9724   45.1029 C   0  0  0  0  0  0  0  0  0  0  0  0
   23.0787   55.9591   45.4208 C   0  0  0  0  0  0  0  0  0  0  0  0
   23.3888   54.5665   45.5170 O   0  0  0  0  0  0  0  0  0  0  0  0
   24.7406   54.1709   45.4785 C   0  0  0  0  0  0  0  0  0  0  0  0
   25.1392   53.2651   46.6142 C   0  0  0  0  0  0  0  0  0  0  0  0
   26.5375   52.9785   46.4385 O   0  0  0  0  0  0  0  0  0  0  0  0
   27.3088   53.4251   47.5451 C   0  0  0  0  0  0  0  0  0  0  0  0
   28.6480   54.0340   47.1135 C   0  0  0  0  0  0  0  0  0  0  0  0
   29.6438   53.7244   48.1361 N   0  0  0  0  0  0  0  0  0  0  0  0
   31.0103   53.7361   47.9511 C   0  0  0  0  0  0  0  0  0  0  0  0
   31.5712   54.5766   46.9769 C   0  0  0  0  0  0  0  0  0  0  0  0
   32.9516   54.6712   46.8207 C   0  0  0  0  0  0  0  0  0  0  0  0
   33.8007   53.8830   47.6285 C   0  0  0  0  0  0  0  0  0  0  0  0
   35.2457   53.9947   47.4751 N   0  0  0  0  0  0  0  0  0  0  0  0
   35.6718   54.7823   46.6075 O   0  0  0  0  0  0  0  0  0  0  0  0
   35.9774   53.3104   48.2265 O   0  0  0  0  0  0  0  0  0  0  0  0
   33.2737   53.0156   48.5852 C   0  0  0  0  0  0  0  0  0  0  0  0
   31.8783   52.9520   48.7513 C   0  0  0  0  0  0  0  0  0  0  0  0
   31.3339   52.0046   49.7562 N   0  0  0  0  0  0  0  0  0  0  0  0
   30.1192   51.8345   49.8146 O   0  0  0  0  0  0  0  0  0  0  0  0
   32.1517   51.4375   50.5189 O   0  0  0  0  0  0  0  0  0  0  0  0
   15.0648   46.9934   41.7829 H   0  0  0  0  0  0  0  0  0  0  0  0
   15.6968   46.7054   40.1704 H   0  0  0  0  0  0  0  0  0  0  0  0
   14.2189   44.5704   40.1168 H   0  0  0  0  0  0  0  0  0  0  0  0
   13.9157   44.8643   41.8220 H   0  0  0  0  0  0  0  0  0  0  0  0
   15.7873   43.2776   41.5421 H   0  0  0  0  0  0  0  0  0  0  0  0
   16.1634   45.6715   43.0571 H   0  0  0  0  0  0  0  0  0  0  0  0
   18.0653   46.1373   44.0882 H   0  0  0  0  0  0  0  0  0  0  0  0
   20.0243   43.9188   44.2400 H   0  0  0  0  0  0  0  0  0  0  0  0
   20.6229   46.7851   43.3465 H   0  0  0  0  0  0  0  0  0  0  0  0
   20.3007   45.4900   42.2063 H   0  0  0  0  0  0  0  0  0  0  0  0
   22.3456   44.2734   43.0053 H   0  0  0  0  0  0  0  0  0  0  0  0
   22.6963   45.6330   44.0889 H   0  0  0  0  0  0  0  0  0  0  0  0
   22.7020   47.2156   42.2482 H   0  0  0  0  0  0  0  0  0  0  0  0
   22.1111   46.0300   41.0982 H   0  0  0  0  0  0  0  0  0  0  0  0
   24.1998   44.7731   41.1460 H   0  0  0  0  0  0  0  0  0  0  0  0
   24.8361   45.7917   42.4579 H   0  0  0  0  0  0  0  0  0  0  0  0
   24.7950   48.5367   41.8165 H   0  0  0  0  0  0  0  0  0  0  0  0
   25.9634   49.9311   38.2158 H   0  0  0  0  0  0  0  0  0  0  0  0
   26.7306   49.9706   39.8286 H   0  0  0  0  0  0  0  0  0  0  0  0
   25.3181   52.9506   39.7017 H   0  0  0  0  0  0  0  0  0  0  0  0
   26.6648   51.9402   40.1762 H   0  0  0  0  0  0  0  0  0  0  0  0
   25.8630   51.5924   42.3632 H   0  0  0  0  0  0  0  0  0  0  0  0
   24.1832   51.8447   41.9147 H   0  0  0  0  0  0  0  0  0  0  0  0
   27.3103   53.1729   42.4396 H   0  0  0  0  0  0  0  0  0  0  0  0
   26.5639   54.2244   43.6173 H   0  0  0  0  0  0  0  0  0  0  0  0
   26.2125   55.8600   41.5487 H   0  0  0  0  0  0  0  0  0  0  0  0
   27.4479   54.8558   40.8253 H   0  0  0  0  0  0  0  0  0  0  0  0
   29.0539   56.0549   40.7565 H   0  0  0  0  0  0  0  0  0  0  0  0
   30.0110   55.6371   42.1971 H   0  0  0  0  0  0  0  0  0  0  0  0
   28.6126   58.3124   41.7170 H   0  0  0  0  0  0  0  0  0  0  0  0
   30.3215   58.0179   41.3296 H   0  0  0  0  0  0  0  0  0  0  0  0
   28.8910   59.8294   42.9881 H   0  0  0  0  0  0  0  0  0  0  0  0
   30.2011   59.8887   44.1591 H   0  0  0  0  0  0  0  0  0  0  0  0
   27.9744   60.0793   45.2681 H   0  0  0  0  0  0  0  0  0  0  0  0
   28.8462   58.6445   45.8156 H   0  0  0  0  0  0  0  0  0  0  0  0
   26.4619   59.7894   43.4483 H   0  0  0  0  0  0  0  0  0  0  0  0
   25.5585   59.3836   44.9361 H   0  0  0  0  0  0  0  0  0  0  0  0
   25.7516   57.1549   42.9689 H   0  0  0  0  0  0  0  0  0  0  0  0
   24.9216   58.5698   42.3275 H   0  0  0  0  0  0  0  0  0  0  0  0
   24.2220   57.7129   45.9073 H   0  0  0  0  0  0  0  0  0  0  0  0
   25.1856   56.5544   45.0387 H   0  0  0  0  0  0  0  0  0  0  0  0
   22.2560   56.0630   44.7043 H   0  0  0  0  0  0  0  0  0  0  0  0
   22.6597   56.2030   46.4051 H   0  0  0  0  0  0  0  0  0  0  0  0
   25.4548   54.9761   45.5701 H   0  0  0  0  0  0  0  0  0  0  0  0
   24.9174   53.6672   44.5358 H   0  0  0  0  0  0  0  0  0  0  0  0
   24.5570   52.3454   46.6195 H   0  0  0  0  0  0  0  0  0  0  0  0
   24.9483   53.7946   47.5556 H   0  0  0  0  0  0  0  0  0  0  0  0
   27.4602   52.5570   48.1955 H   0  0  0  0  0  0  0  0  0  0  0  0
   26.7878   54.1938   48.1223 H   0  0  0  0  0  0  0  0  0  0  0  0
   28.5490   55.1253   47.0715 H   0  0  0  0  0  0  0  0  0  0  0  0
   28.9392   53.6835   46.1151 H   0  0  0  0  0  0  0  0  0  0  0  0
   29.2967   53.1776   48.9279 H   0  0  0  0  0  0  0  0  0  0  0  0
   30.9328   55.2021   46.3488 H   0  0  0  0  0  0  0  0  0  0  0  0
   33.3599   55.3559   46.0799 H   0  0  0  0  0  0  0  0  0  0  0  0
   33.9310   52.4097   49.2224 H   0  0  0  0  0  0  0  0  0  0  0  0
  1  2  2  0  0  0  0
  2  3  1  0  0  0  0
  2  4  1  0  0  0  0
  4  5  1  0  0  0  0
  4 65  1  0  0  0  0
  4 66  1  0  0  0  0
  5  6  1  0  0  0  0
  5 67  1  0  0  0  0
  5 68  1  0  0  0  0
  6  7  1  0  0  0  0
  6 10  1  0  0  0  0
  6 69  1  1  0  0  0
  7  8  2  0  0  0  0
  7  9  1  0  0  0  0
 10 11  1  0  0  0  0
 10 70  1  0  0  0  0
 11 12  2  0  0  0  0
 11 13  1  0  0  0  0
 13 14  1  0  0  0  0
 13 71  1  0  0  0  0
 14 15  1  0  0  0  0
 14 18  1  0  0  0  0
 14 72  1  1  0  0  0
 15 16  2  0  0  0  0
 15 17  1  0  0  0  0
 18 19  1  0  0  0  0
 18 73  1  0  0  0  0
 18 74  1  0  0  0  0
 19 20  1  0  0  0  0
 19 75  1  0  0  0  0
 19 76  1  0  0  0  0
 20 21  1  0  0  0  0
 20 77  1  0  0  0  0
 20 78  1  0  0  0  0
 21 22  1  0  0  0  0
 21 79  1  0  0  0  0
 21 80  1  0  0  0  0
 22 23  2  0  0  0  0
 22 24  1  0  0  0  0
 23 26  1  0  0  0  0
 23 81  1  0  0  0  0
 24 25  1  0  0  0  0
 25 26  2  0  0  0  0
 26 27  1  0  0  0  0
 27 28  1  0  0  0  0
 27 82  1  0  0  0  0
 27 83  1  0  0  0  0
 28 29  1  0  0  0  0
 29 30  1  0  0  0  0
 29 84  1  0  0  0  0
 29 85  1  0  0  0  0
 30 31  1  0  0  0  0
 30 86  1  0  0  0  0
 30 87  1  0  0  0  0
 31 32  1  0  0  0  0
 32 33  1  0  0  0  0
 32 88  1  0  0  0  0
 32 89  1  0  0  0  0
 33 34  1  0  0  0  0
 33 90  1  0  0  0  0
 33 91  1  0  0  0  0
 34 35  1  0  0  0  0
 35 36  1  0  0  0  0
 35 92  1  0  0  0  0
 35 93  1  0  0  0  0
 36 37  1  0  0  0  0
 36 94  1  0  0  0  0
 36 95  1  0  0  0  0
 37 38  1  0  0  0  0
 38 39  1  0  0  0  0
 38 96  1  0  0  0  0
 38 97  1  0  0  0  0
 39 40  1  0  0  0  0
 39 98  1  0  0  0  0
 39 99  1  0  0  0  0
 40 41  1  0  0  0  0
 41 42  1  0  0  0  0
 41100  1  0  0  0  0
 41101  1  0  0  0  0
 42 43  1  0  0  0  0
 42102  1  0  0  0  0
 42103  1  0  0  0  0
 43 44  1  0  0  0  0
 44 45  1  0  0  0  0
 44104  1  0  0  0  0
 44105  1  0  0  0  0
 45 46  1  0  0  0  0
 45106  1  0  0  0  0
 45107  1  0  0  0  0
 46 47  1  0  0  0  0
 47 48  1  0  0  0  0
 47108  1  0  0  0  0
 47109  1  0  0  0  0
 48 49  1  0  0  0  0
 48110  1  0  0  0  0
 48111  1  0  0  0  0
 49 50  1  0  0  0  0
 50 51  1  0  0  0  0
 50112  1  0  0  0  0
 50113  1  0  0  0  0
 51 52  1  0  0  0  0
 51114  1  0  0  0  0
 51115  1  0  0  0  0
 52 53  1  0  0  0  0
 52116  1  0  0  0  0
 53 54  2  0  0  0  0
 53 61  1  0  0  0  0
 54 55  1  0  0  0  0
 54117  1  0  0  0  0
 55 56  2  0  0  0  0
 55118  1  0  0  0  0
 56 57  1  0  0  0  0
 56 60  1  0  0  0  0
 57 58  2  0  0  0  0
 57 59  2  0  0  0  0
 60 61  2  0  0  0  0
 60119  1  0  0  0  0
 61 62  1  0  0  0  0
 62 63  2  0  0  0  0
 62 64  2  0  0  0  0
M  CHG  1  22   1
M  END
$$$$
