ARG
 OpenBabel04051920373D

 27 26  0  0  1  0  0  0  0  0999 V2000
    1.4865    2.5213   36.5674 N   0  3  0  0  0  0  0  0  0  0  0  0
    1.3298    1.5506   37.7180 C   0  0  2  0  0  0  0  0  0  0  0  0
    2.7050    1.0356   38.2602 C   0  0  0  0  0  0  0  0  0  0  0  0
    2.6322    0.1908   39.1802 O   0  0  0  0  0  0  0  0  0  0  0  0
    0.4323    0.3822   37.2740 C   0  0  0  0  0  0  0  0  0  0  0  0
    0.9408   -0.3667   36.0418 C   0  0  0  0  0  0  0  0  0  0  0  0
    0.1254   -1.6190   35.7361 C   0  0  0  0  0  0  0  0  0  0  0  0
    0.4445   -2.0873   34.3736 N   0  0  0  0  0  0  0  0  0  0  0  0
   -0.0805   -3.1930   33.8242 C   0  0  0  0  0  0  0  0  0  0  0  0
   -0.9468   -3.9573   34.4490 N   0  0  0  0  0  0  0  0  0  0  0  0
    0.2828   -3.5155   32.5722 N   0  0  0  0  0  0  0  0  0  0  0  0
    3.6860    1.5210   37.6211 O   0  0  0  0  0  0  0  0  0  0  0  0
    0.6046    2.8931   36.2163 H   0  0  0  0  0  0  0  0  0  0  0  0
    2.0925    3.2901   36.8949 H   0  0  0  0  0  0  0  0  0  0  0  0
    0.8107    2.1076   38.5076 H   0  0  0  0  0  0  0  0  0  0  0  0
   -0.5806    0.7532   37.0608 H   0  0  0  0  0  0  0  0  0  0  0  0
    0.3512   -0.3288   38.1035 H   0  0  0  0  0  0  0  0  0  0  0  0
    1.9844   -0.6628   36.1925 H   0  0  0  0  0  0  0  0  0  0  0  0
    0.9003    0.2959   35.1689 H   0  0  0  0  0  0  0  0  0  0  0  0
   -0.9449   -1.3929   35.7797 H   0  0  0  0  0  0  0  0  0  0  0  0
    0.3707   -2.4102   36.4524 H   0  0  0  0  0  0  0  0  0  0  0  0
    1.1073   -1.5730   33.8263 H   0  0  0  0  0  0  0  0  0  0  0  0
   -1.3378   -4.7898   34.0283 H   0  0  0  0  0  0  0  0  0  0  0  0
    0.9428   -2.9528   32.0631 H   0  0  0  0  0  0  0  0  0  0  0  0
   -0.0966   -4.3434   32.1290 H   0  0  0  0  0  0  0  0  0  0  0  0
    2.0418    2.0593   35.8378 H   0  0  0  0  0  0  0  0  0  0  0  0
   -1.2402   -3.7408   35.4009 H   0  0  0  0  0  0  0  0  0  0  0  0
  1  2  1  0  0  0  0
  1 13  1  0  0  0  0
  1 14  1  0  0  0  0
  1 26  1  0  0  0  0
  2  3  1  0  0  0  0
  2  5  1  0  0  0  0
  2 15  1  1  0  0  0
  3  4  2  0  0  0  0
  3 12  1  0  0  0  0
  5  6  1  0  0  0  0
  5 16  1  0  0  0  0
  5 17  1  0  0  0  0
  6  7  1  0  0  0  0
  6 18  1  0  0  0  0
  6 19  1  0  0  0  0
  7  8  1  0  0  0  0
  7 20  1  0  0  0  0
  7 21  1  0  0  0  0
  8  9  1  0  0  0  0
  8 22  1  0  0  0  0
  9 10  2  0  0  0  0
  9 11  1  0  0  0  0
 10 23  1  0  0  0  0
 10 27  1  0  0  0  0
 11 24  1  0  0  0  0
 11 25  1  0  0  0  0
M  CHG  1   1   1
M  END
$$$$
