ATP
 OpenBabel04051917333D

 43 45  0  0  1  0  0  0  0  0999 V2000
  -21.6920   46.5066    6.1796 P   0  0  0  0  0  0  0  0  0  0  0  0
  -20.5115   46.2619    7.1147 O   0  0  0  0  0  0  0  0  0  0  0  0
  -22.2029   45.1904    5.5677 O   0  0  0  0  0  0  0  0  0  0  0  0
  -22.8453   47.2680    6.8402 O   0  0  0  0  0  0  0  0  0  0  0  0
  -20.4500   48.8079    4.7222 P   0  0  1  0  0  0  0  0  0  0  0  0
  -21.4413   49.9684    4.8522 O   0  0  0  0  0  0  0  0  0  0  0  0
  -19.1174   48.9433    5.4337 O   0  0  0  0  0  0  0  0  0  0  0  0
  -21.1738   47.3800    4.9167 O   0  0  0  0  0  0  0  0  0  0  0  0
  -18.7917   48.4823    2.3448 P   0  0  2  0  0  0  0  0  0  0  0  0
  -18.1328   47.1432    2.6206 O   0  0  0  0  0  0  0  0  0  0  0  0
  -17.9447   49.7263    2.1335 O   0  0  0  0  0  0  0  0  0  0  0  0
  -20.1550   48.7431    3.1254 O   0  0  0  0  0  0  0  0  0  0  0  0
  -19.4450   48.1791    0.8676 O   0  0  0  0  0  0  0  0  0  0  0  0
  -19.5105   49.1866   -0.1110 C   0  0  0  0  0  0  0  0  0  0  0  0
  -18.8126   48.6802   -1.3849 C   0  0  1  0  0  0  0  0  0  0  0  0
  -17.3594   48.6813   -1.2506 O   0  0  0  0  0  0  0  0  0  0  0  0
  -19.2273   47.2535   -1.7604 C   0  0  1  0  0  0  0  0  0  0  0  0
  -19.2852   47.1153   -3.2045 O   0  0  0  0  0  0  0  0  0  0  0  0
  -18.0792   46.3923   -1.2449 C   0  0  1  0  0  0  0  0  0  0  0  0
  -17.9953   45.1687   -2.0058 O   0  0  0  0  0  0  0  0  0  0  0  0
  -16.8882   47.3342   -1.4654 C   0  0  2  0  0  0  0  0  0  0  0  0
  -15.7076   47.0390   -0.6755 N   0  3  0  0  0  0  0  0  0  0  0  0
  -15.5879   47.1710    0.6873 C   0  0  0  0  0  0  0  0  0  0  0  0
  -14.3954   46.7704    1.1114 N   0  0  0  0  0  0  0  0  0  0  0  0
  -13.7216   46.3704   -0.0072 C   0  0  0  0  0  0  0  0  0  0  0  0
  -12.4223   45.8600   -0.1845 C   0  0  0  0  0  0  0  0  0  0  0  0
  -11.5376   45.6836    0.8622 N   0  0  0  0  0  0  0  0  0  0  0  0
  -12.0060   45.5631   -1.4343 N   0  0  0  0  0  0  0  0  0  0  0  0
  -12.8785   45.7727   -2.4458 C   0  0  0  0  0  0  0  0  0  0  0  0
  -14.1466   46.2449   -2.4102 N   0  0  0  0  0  0  0  0  0  0  0  0
  -14.5149   46.5305   -1.1415 C   0  0  0  0  0  0  0  0  0  0  0  0
  -19.0917   50.1422    0.2073 H   0  0  0  0  0  0  0  0  0  0  0  0
  -20.5743   49.3458   -0.3205 H   0  0  0  0  0  0  0  0  0  0  0  0
  -19.0457   49.3775   -2.1999 H   0  0  0  0  0  0  0  0  0  0  0  0
  -20.2104   46.9563   -1.3784 H   0  0  0  0  0  0  0  0  0  0  0  0
  -19.6428   46.2163   -3.3325 H   0  0  0  0  0  0  0  0  0  0  0  0
  -18.2145   46.1454   -0.1879 H   0  0  0  0  0  0  0  0  0  0  0  0
  -17.7119   45.4215   -2.8994 H   0  0  0  0  0  0  0  0  0  0  0  0
  -16.5731   47.2965   -2.5158 H   0  0  0  0  0  0  0  0  0  0  0  0
  -16.3665   47.5575    1.3095 H   0  0  0  0  0  0  0  0  0  0  0  0
  -10.6532   45.2498    0.6844 H   0  0  0  0  0  0  0  0  0  0  0  0
  -11.9053   45.8373    1.7974 H   0  0  0  0  0  0  0  0  0  0  0  0
  -12.4985   45.5352   -3.4348 H   0  0  0  0  0  0  0  0  0  0  0  0
  1  2  2  0  0  0  0
  1  3  1  0  0  0  0
  1  4  1  0  0  0  0
  1  8  1  0  0  0  0
  5  6  2  1  0  0  0
  5  7  1  0  0  0  0
  5  8  1  0  0  0  0
  5 12  1  0  0  0  0
  9 10  2  1  0  0  0
  9 11  1  0  0  0  0
  9 12  1  0  0  0  0
  9 13  1  0  0  0  0
 13 14  1  0  0  0  0
 14 15  1  0  0  0  0
 14 32  1  0  0  0  0
 14 33  1  0  0  0  0
 15 16  1  0  0  0  0
 15 17  1  0  0  0  0
 15 34  1  6  0  0  0
 16 21  1  0  0  0  0
 17 18  1  0  0  0  0
 17 19  1  0  0  0  0
 17 35  1  1  0  0  0
 18 36  1  0  0  0  0
 19 20  1  0  0  0  0
 19 21  1  0  0  0  0
 19 37  1  1  0  0  0
 20 38  1  0  0  0  0
 21 22  1  0  0  0  0
 21 39  1  6  0  0  0
 22 23  2  0  0  0  0
 22 31  1  0  0  0  0
 23 24  1  0  0  0  0
 23 40  1  0  0  0  0
 24 25  1  0  0  0  0
 25 26  2  0  0  0  0
 25 31  1  0  0  0  0
 26 27  1  0  0  0  0
 26 28  1  0  0  0  0
 27 41  1  0  0  0  0
 27 42  1  0  0  0  0
 28 29  2  0  0  0  0
 29 30  1  0  0  0  0
 29 43  1  0  0  0  0
 30 31  2  0  0  0  0
M  CHG  1  22   1
M  END
$$$$
