ATP
 OpenBabel04051919543D

 43 45  0  0  1  0  0  0  0  0999 V2000
   37.3773   -2.8450   22.8609 P   0  0  0  0  0  0  0  0  0  0  0  0
   37.8651   -1.4019   22.9459 O   0  0  0  0  0  0  0  0  0  0  0  0
   37.5319   -3.5175   21.5137 O   0  0  0  0  0  0  0  0  0  0  0  0
   35.9034   -2.9334   23.3514 O   0  0  0  0  0  0  0  0  0  0  0  0
   39.7216   -4.2276   24.0108 P   0  0  1  0  0  0  0  0  0  0  0  0
   39.9920   -4.6893   25.4568 O   0  0  0  0  0  0  0  0  0  0  0  0
   39.9487   -5.3114   22.9686 O   0  0  0  0  0  0  0  0  0  0  0  0
   38.2070   -3.6743   23.9669 O   0  0  0  0  0  0  0  0  0  0  0  0
   41.8076   -2.5684   22.7748 P   0  0  1  0  0  0  0  0  0  0  0  0
   42.6329   -1.3958   23.3112 O   0  0  0  0  0  0  0  0  0  0  0  0
   42.6472   -3.7564   22.3102 O   0  0  0  0  0  0  0  0  0  0  0  0
   40.6252   -2.9235   23.7810 O   0  0  0  0  0  0  0  0  0  0  0  0
   40.9958   -1.9673   21.4982 O   0  0  0  0  0  0  0  0  0  0  0  0
   41.3528   -2.4038   20.2074 C   0  0  0  0  0  0  0  0  0  0  0  0
   40.6126   -3.6888   19.7898 C   0  0  1  0  0  0  0  0  0  0  0  0
   39.5208   -3.2929   18.8943 O   0  0  0  0  0  0  0  0  0  0  0  0
   41.4953   -4.6276   18.9421 C   0  0  1  0  0  0  0  0  0  0  0  0
   41.3914   -6.0105   19.3208 O   0  0  0  0  0  0  0  0  0  0  0  0
   40.8935   -4.5689   17.5493 C   0  0  1  0  0  0  0  0  0  0  0  0
   41.0984   -5.7938   16.8246 O   0  0  0  0  0  0  0  0  0  0  0  0
   39.4233   -4.2651   17.8539 C   0  0  2  0  0  0  0  0  0  0  0  0
   38.7417   -3.6358   16.7300 N   0  3  0  0  0  0  0  0  0  0  0  0
   38.9185   -2.3469   16.3172 C   0  0  0  0  0  0  0  0  0  0  0  0
   38.2270   -2.0549   15.2322 N   0  0  0  0  0  0  0  0  0  0  0  0
   37.5112   -3.2030   14.9776 C   0  0  0  0  0  0  0  0  0  0  0  0
   36.5843   -3.5057   13.9596 C   0  0  0  0  0  0  0  0  0  0  0  0
   36.2731   -2.6087   12.9455 N   0  0  0  0  0  0  0  0  0  0  0  0
   36.0241   -4.7370   13.9337 N   0  0  0  0  0  0  0  0  0  0  0  0
   36.4199   -5.6208   14.8830 C   0  0  0  0  0  0  0  0  0  0  0  0
   37.3337   -5.4668   15.8607 N   0  0  0  0  0  0  0  0  0  0  0  0
   37.8284   -4.2141   15.8771 C   0  0  0  0  0  0  0  0  0  0  0  0
   42.4427   -2.5159   20.1668 H   0  0  0  0  0  0  0  0  0  0  0  0
   41.1022   -1.5858   19.5228 H   0  0  0  0  0  0  0  0  0  0  0  0
   40.1855   -4.2041   20.6501 H   0  0  0  0  0  0  0  0  0  0  0  0
   42.5546   -4.3465   18.9476 H   0  0  0  0  0  0  0  0  0  0  0  0
   42.2398   -6.4193   19.0975 H   0  0  0  0  0  0  0  0  0  0  0  0
   41.3538   -3.7531   16.9734 H   0  0  0  0  0  0  0  0  0  0  0  0
   40.7429   -6.4694   17.4442 H   0  0  0  0  0  0  0  0  0  0  0  0
   38.8591   -5.1433   18.1762 H   0  0  0  0  0  0  0  0  0  0  0  0
   39.5674   -1.6711   16.8586 H   0  0  0  0  0  0  0  0  0  0  0  0
   35.4619   -2.8220   12.3902 H   0  0  0  0  0  0  0  0  0  0  0  0
   36.5647   -1.6545   13.1246 H   0  0  0  0  0  0  0  0  0  0  0  0
   35.9471   -6.5970   14.8421 H   0  0  0  0  0  0  0  0  0  0  0  0
  1  2  2  0  0  0  0
  1  3  1  0  0  0  0
  1  4  1  0  0  0  0
  1  8  1  0  0  0  0
  5  6  2  1  0  0  0
  5  7  1  0  0  0  0
  5  8  1  0  0  0  0
  5 12  1  0  0  0  0
  9 10  2  1  0  0  0
  9 11  1  0  0  0  0
  9 12  1  0  0  0  0
  9 13  1  0  0  0  0
 13 14  1  0  0  0  0
 14 15  1  0  0  0  0
 14 32  1  0  0  0  0
 14 33  1  0  0  0  0
 15 16  1  0  0  0  0
 15 17  1  0  0  0  0
 15 34  1  1  0  0  0
 16 21  1  0  0  0  0
 17 18  1  0  0  0  0
 17 19  1  0  0  0  0
 17 35  1  6  0  0  0
 18 36  1  0  0  0  0
 19 20  1  0  0  0  0
 19 21  1  0  0  0  0
 19 37  1  6  0  0  0
 20 38  1  0  0  0  0
 21 22  1  0  0  0  0
 21 39  1  1  0  0  0
 22 23  2  0  0  0  0
 22 31  1  0  0  0  0
 23 24  1  0  0  0  0
 23 40  1  0  0  0  0
 24 25  1  0  0  0  0
 25 26  2  0  0  0  0
 25 31  1  0  0  0  0
 26 27  1  0  0  0  0
 26 28  1  0  0  0  0
 27 41  1  0  0  0  0
 27 42  1  0  0  0  0
 28 29  2  0  0  0  0
 29 30  1  0  0  0  0
 29 43  1  0  0  0  0
 30 31  2  0  0  0  0
M  CHG  1  22   1
M  END
$$$$
