ATP
 OpenBabel04051918103D

 43 45  0  0  1  0  0  0  0  0999 V2000
  110.9911   47.5048   19.4098 P   0  0  0  0  0  0  0  0  0  0  0  0
  109.5519   47.0514   19.1126 O   0  0  0  0  0  0  0  0  0  0  0  0
  111.8934   46.2869   19.6314 O   0  0  0  0  0  0  0  0  0  0  0  0
  111.0040   48.5151   20.5365 O   0  0  0  0  0  0  0  0  0  0  0  0
  113.0793   48.4362   17.7192 P   0  0  1  0  0  0  0  0  0  0  0  0
  114.0366   48.6189   18.9205 O   0  0  0  0  0  0  0  0  0  0  0  0
  113.5452   47.4829   16.6147 O   0  0  0  0  0  0  0  0  0  0  0  0
  111.5246   48.2123   18.0633 O   0  0  0  0  0  0  0  0  0  0  0  0
  112.3592   51.2056   17.5942 P   0  0  2  0  0  0  0  0  0  0  0  0
  113.0270   52.4184   17.0125 O   0  0  0  0  0  0  0  0  0  0  0  0
  112.0653   51.2544   19.0811 O   0  0  0  0  0  0  0  0  0  0  0  0
  113.0383   49.8757   17.0085 O   0  0  0  0  0  0  0  0  0  0  0  0
  109.4202   55.2018   13.4718 N   0  3  0  0  0  0  0  0  0  0  0  0
  109.9874   56.1031   14.3481 C   0  0  0  0  0  0  0  0  0  0  0  0
  109.4638   57.3070   14.2561 N   0  0  0  0  0  0  0  0  0  0  0  0
  108.4903   57.1856   13.2745 C   0  0  0  0  0  0  0  0  0  0  0  0
  107.5803   58.1340   12.7599 C   0  0  0  0  0  0  0  0  0  0  0  0
  107.5359   59.4454   13.1142 N   0  0  0  0  0  0  0  0  0  0  0  0
  106.7203   57.7235   11.7788 N   0  0  0  0  0  0  0  0  0  0  0  0
  106.8031   56.4255   11.3892 C   0  0  0  0  0  0  0  0  0  0  0  0
  107.6375   55.4576   11.7921 N   0  0  0  0  0  0  0  0  0  0  0  0
  108.4444   55.9014   12.7763 C   0  0  0  0  0  0  0  0  0  0  0  0
  110.9146   51.0624   16.8193 O   0  0  0  0  0  0  0  0  0  0  0  0
  110.4113   52.2264   16.2071 C   0  0  0  0  0  0  0  0  0  0  0  0
  110.1601   51.9773   14.7180 C   0  0  1  0  0  0  0  0  0  0  0  0
  109.1987   52.9788   14.2510 O   0  0  0  0  0  0  0  0  0  0  0  0
  111.4380   52.1385   13.8628 C   0  0  1  0  0  0  0  0  0  0  0  0
  111.4658   51.2853   12.6996 O   0  0  0  0  0  0  0  0  0  0  0  0
  111.3446   53.5856   13.3758 C   0  0  1  0  0  0  0  0  0  0  0  0
  111.9828   53.8543   12.1193 O   0  0  0  0  0  0  0  0  0  0  0  0
  109.8306   53.8173   13.2773 C   0  0  2  0  0  0  0  0  0  0  0  0
  110.7839   55.8224   15.0307 H   0  0  0  0  0  0  0  0  0  0  0  0
  106.8219   60.0249   12.7890 H   0  0  0  0  0  0  0  0  0  0  0  0
  108.1403   59.7007   13.9477 H   0  0  0  0  0  0  0  0  0  0  0  0
  106.1010   56.1538   10.5995 H   0  0  0  0  0  0  0  0  0  0  0  0
  111.0977   53.0617   16.3075 H   0  0  0  0  0  0  0  0  0  0  0  0
  109.5009   52.5369   16.7310 H   0  0  0  0  0  0  0  0  0  0  0  0
  109.7113   50.9876   14.5691 H   0  0  0  0  0  0  0  0  0  0  0  0
  112.3588   51.9586   14.4274 H   0  0  0  0  0  0  0  0  0  0  0  0
  110.5849   51.2679   12.2978 H   0  0  0  0  0  0  0  0  0  0  0  0
  111.8038   54.2258   14.1215 H   0  0  0  0  0  0  0  0  0  0  0  0
  111.7069   53.1503   11.5038 H   0  0  0  0  0  0  0  0  0  0  0  0
  109.4578   53.5051   12.2926 H   0  0  0  0  0  0  0  0  0  0  0  0
  1  2  2  0  0  0  0
  1  3  1  0  0  0  0
  1  4  1  0  0  0  0
  1  8  1  0  0  0  0
  5  6  2  1  0  0  0
  5  7  1  0  0  0  0
  5  8  1  0  0  0  0
  5 12  1  0  0  0  0
  9 10  2  6  0  0  0
  9 11  1  0  0  0  0
  9 12  1  0  0  0  0
  9 23  1  0  0  0  0
 13 14  2  0  0  0  0
 13 22  1  0  0  0  0
 13 31  1  0  0  0  0
 14 15  1  0  0  0  0
 14 32  1  0  0  0  0
 15 16  1  0  0  0  0
 16 17  2  0  0  0  0
 16 22  1  0  0  0  0
 17 18  1  0  0  0  0
 17 19  1  0  0  0  0
 18 33  1  0  0  0  0
 18 34  1  0  0  0  0
 19 20  2  0  0  0  0
 20 21  1  0  0  0  0
 20 35  1  0  0  0  0
 21 22  2  0  0  0  0
 23 24  1  0  0  0  0
 24 25  1  0  0  0  0
 24 36  1  0  0  0  0
 24 37  1  0  0  0  0
 25 26  1  0  0  0  0
 25 27  1  0  0  0  0
 25 38  1  6  0  0  0
 26 31  1  0  0  0  0
 27 28  1  0  0  0  0
 27 29  1  0  0  0  0
 27 39  1  1  0  0  0
 28 40  1  0  0  0  0
 29 30  1  0  0  0  0
 29 31  1  0  0  0  0
 29 41  1  1  0  0  0
 30 42  1  0  0  0  0
 31 43  1  6  0  0  0
M  CHG  1  13   1
M  END
$$$$
