AZF
 OpenBabel04051918233D

 22 22  0  0  1  0  0  0  0  0999 V2000
   -1.6146   10.7704    6.7165 O   0  0  0  0  0  0  0  0  0  0  0  0
   -1.1254   10.6704    8.0600 C   0  0  1  0  0  0  0  0  0  0  0  0
   -0.3271   11.9463    8.4001 C   0  0  2  0  0  0  0  0  0  0  0  0
    0.8180   12.0357    7.5463 O   0  0  0  0  0  0  0  0  0  0  0  0
    0.1362   11.9140    9.8600 C   0  0  0  0  0  0  0  0  0  0  0  0
   -0.9081   11.5429   10.8251 N   0  0  0  0  0  0  0  0  0  0  0  0
   -2.2595   10.5359    9.0982 C   0  0  1  0  0  0  0  0  0  0  0  0
   -3.2021    9.3563    8.8124 C   0  0  0  0  0  0  0  0  0  0  0  0
   -2.5467    8.0911    8.9354 O   0  0  0  0  0  0  0  0  0  0  0  0
   -1.6574   10.3763   10.4312 N   0  0  0  0  0  0  0  0  0  0  0  0
   -1.9815    9.9064    6.4641 H   0  0  0  0  0  0  0  0  0  0  0  0
   -0.4526    9.8058    8.0866 H   0  0  0  0  0  0  0  0  0  0  0  0
   -0.9435   12.8310    8.2097 H   0  0  0  0  0  0  0  0  0  0  0  0
    0.4584   12.0064    6.6347 H   0  0  0  0  0  0  0  0  0  0  0  0
    0.4856   12.9214   10.1213 H   0  0  0  0  0  0  0  0  0  0  0  0
    1.0115   11.2618    9.9704 H   0  0  0  0  0  0  0  0  0  0  0  0
   -0.4648   11.3933   11.7379 H   0  0  0  0  0  0  0  0  0  0  0  0
   -2.8826   11.4431    9.0690 H   0  0  0  0  0  0  0  0  0  0  0  0
   -3.6373    9.4240    7.8091 H   0  0  0  0  0  0  0  0  0  0  0  0
   -4.0379    9.3633    9.5200 H   0  0  0  0  0  0  0  0  0  0  0  0
   -1.8088    8.0593    8.3069 H   0  0  0  0  0  0  0  0  0  0  0  0
   -1.1354    9.4889   10.4833 H   0  0  0  0  0  0  0  0  0  0  0  0
  1  2  1  0  0  0  0
  1 11  1  0  0  0  0
  2  3  1  0  0  0  0
  2  7  1  0  0  0  0
  2 12  1  1  0  0  0
  3  4  1  0  0  0  0
  3  5  1  0  0  0  0
  3 13  1  6  0  0  0
  4 14  1  0  0  0  0
  5  6  1  0  0  0  0
  5 15  1  0  0  0  0
  5 16  1  0  0  0  0
  6 10  1  0  0  0  0
  6 17  1  0  0  0  0
  7  8  1  0  0  0  0
  7 10  1  0  0  0  0
  7 18  1  6  0  0  0
  8  9  1  0  0  0  0
  8 19  1  0  0  0  0
  8 20  1  0  0  0  0
  9 21  1  0  0  0  0
 10 22  1  0  0  0  0
M  END
$$$$
