AZM
 OpenBabel04051919293D

 19 19  0  0  0  0  0  0  0  0999 V2000
   38.2100   20.2156   22.3927 C   0  0  0  0  0  0  0  0  0  0  0  0
   38.2586   20.9010   24.6382 C   0  0  0  0  0  0  0  0  0  0  0  0
   38.7645   22.8173   26.0921 C   0  0  0  0  0  0  0  0  0  0  0  0
   38.8775   23.1487   27.5466 C   0  0  0  0  0  0  0  0  0  0  0  0
   36.5924   20.2433   20.1530 N   0  0  0  0  0  0  0  0  0  0  0  0
   37.8919   19.6506   24.5333 N   0  0  0  0  0  0  0  0  0  0  0  0
   37.8458   19.2391   23.2041 N   0  0  0  0  0  0  0  0  0  0  0  0
   38.3913   21.5245   25.8546 N   0  0  0  0  0  0  0  0  0  0  0  0
   38.6614   18.8093   20.2800 O   0  0  0  0  0  0  0  0  0  0  0  0
   38.8344   21.3171   20.1280 O   0  0  0  0  0  0  0  0  0  0  0  0
   38.9751   23.6822   25.2496 O   0  0  0  0  0  0  0  0  0  0  0  0
   38.1937   20.1259   20.6359 S   0  0  0  0  0  0  0  0  0  0  0  0
   38.5543   21.6895   23.1555 S   0  0  0  0  0  0  0  0  0  0  0  0
   39.1813   24.1880   27.6661 H   0  0  0  0  0  0  0  0  0  0  0  0
   39.6428   22.5012   27.9952 H   0  0  0  0  0  0  0  0  0  0  0  0
   37.9186   22.9973   28.0329 H   0  0  0  0  0  0  0  0  0  0  0  0
   36.4059   20.0139   19.1796 H   0  0  0  0  0  0  0  0  0  0  0  0
   35.8641   20.1515   20.8574 H   0  0  0  0  0  0  0  0  0  0  0  0
   38.2084   20.9044   26.6498 H   0  0  0  0  0  0  0  0  0  0  0  0
  1  7  2  0  0  0  0
  1 12  1  0  0  0  0
  1 13  1  0  0  0  0
  2  6  2  0  0  0  0
  2  8  1  0  0  0  0
  2 13  1  0  0  0  0
  3  4  1  0  0  0  0
  3  8  1  0  0  0  0
  3 11  2  0  0  0  0
  4 14  1  0  0  0  0
  4 15  1  0  0  0  0
  4 16  1  0  0  0  0
  5 12  1  0  0  0  0
  5 17  1  0  0  0  0
  5 18  1  0  0  0  0
  6  7  1  0  0  0  0
  8 19  1  0  0  0  0
  9 12  2  0  0  0  0
 10 12  2  0  0  0  0
M  END
$$$$
