AZM
 OpenBabel04051918073D

 19 19  0  0  0  0  0  0  0  0999 V2000
   -5.3144    2.1697   15.5212 C   0  0  0  0  0  0  0  0  0  0  0  0
   -4.7691    4.0246   14.1879 C   0  0  0  0  0  0  0  0  0  0  0  0
   -5.7200    5.9708   13.0329 C   0  0  0  0  0  0  0  0  0  0  0  0
   -5.2857    7.0338   12.0521 C   0  0  0  0  0  0  0  0  0  0  0  0
   -5.5456   -0.5578   15.6201 N   0  0  0  0  0  0  0  0  0  0  0  0
   -3.7168    3.2711   14.4337 N   0  0  0  0  0  0  0  0  0  0  0  0
   -4.0348    2.1697   15.2027 N   0  0  0  0  0  0  0  0  0  0  0  0
   -4.6841    5.1396   13.3928 N   0  0  0  0  0  0  0  0  0  0  0  0
   -5.6291    0.8366   17.7124 O   0  0  0  0  0  0  0  0  0  0  0  0
   -7.5252    0.8863   16.0382 O   0  0  0  0  0  0  0  0  0  0  0  0
   -6.8845    5.9052   13.4078 O   0  0  0  0  0  0  0  0  0  0  0  0
   -6.1090    0.8287   16.3519 S   0  0  0  0  0  0  0  0  0  0  0  0
   -6.2154    3.4739   14.9097 S   0  0  0  0  0  0  0  0  0  0  0  0
   -6.1335    7.6823   11.8218 H   0  0  0  0  0  0  0  0  0  0  0  0
   -4.9423    6.5653   11.1266 H   0  0  0  0  0  0  0  0  0  0  0  0
   -4.4843    7.6438   12.4814 H   0  0  0  0  0  0  0  0  0  0  0  0
   -5.7657   -1.4510   16.0469 H   0  0  0  0  0  0  0  0  0  0  0  0
   -4.8013   -0.4655   14.9228 H   0  0  0  0  0  0  0  0  0  0  0  0
   -3.7544    5.3197   13.0428 H   0  0  0  0  0  0  0  0  0  0  0  0
  1 13  1  0  0  0  0
  1 12  1  0  0  0  0
  1  7  2  0  0  0  0
  2  6  2  0  0  0  0
  2  8  1  0  0  0  0
  2 13  1  0  0  0  0
  3  8  1  0  0  0  0
  3 11  2  0  0  0  0
  3  4  1  0  0  0  0
  4 14  1  0  0  0  0
  4 15  1  0  0  0  0
  4 16  1  0  0  0  0
  5 12  1  0  0  0  0
  5 17  1  0  0  0  0
  5 18  1  0  0  0  0
  6  7  1  0  0  0  0
  8 19  1  0  0  0  0
  9 12  2  0  0  0  0
 10 12  2  0  0  0  0
M  END
$$$$
