B65
 OpenBabel04051920503D

 41 42  0  0  1  0  0  0  0  0999 V2000
   15.0416   55.5318   39.8388 C   0  0  0  0  0  0  0  0  0  0  0  0
   14.8157   56.4680   40.8507 C   0  0  0  0  0  0  0  0  0  0  0  0
   13.9517   56.1572   41.9048 C   0  0  0  0  0  0  0  0  0  0  0  0
   13.3115   54.9178   41.9588 C   0  0  0  0  0  0  0  0  0  0  0  0
   13.5286   53.9860   40.9405 C   0  0  0  0  0  0  0  0  0  0  0  0
   14.3936   54.2955   39.8931 C   0  0  0  0  0  0  0  0  0  0  0  0
   14.5431   53.4211   38.8507 O   0  0  0  0  0  0  0  0  0  0  0  0
   15.5776   52.5148   38.9193 C   0  0  0  0  0  0  0  0  0  0  0  0
   15.9368   51.9396   37.7000 C   0  0  0  0  0  0  0  0  0  0  0  0
   16.2250   52.1194   40.0932 C   0  0  0  0  0  0  0  0  0  0  0  0
   17.2223   51.1453   40.0455 C   0  0  0  0  0  0  0  0  0  0  0  0
   17.5637   50.5589   38.8292 C   0  0  0  0  0  0  0  0  0  0  0  0
   16.9262   50.9512   37.6454 C   0  0  0  0  0  0  0  0  0  0  0  0
   17.3420   50.3501   36.3258 C   0  0  0  0  0  0  0  0  0  0  0  0
   18.4679   51.1043   35.6142 C   0  0  0  0  0  0  0  0  0  0  0  0
   19.7735   51.1007   36.4161 C   0  0  0  0  0  0  0  0  0  0  0  0
   21.0392   51.6034   35.6781 C   0  0  2  0  0  0  0  0  0  0  0  0
   21.4226   50.6007   34.1702 P   0  0  0  0  0  0  0  0  0  0  0  0
   22.7888   50.9730   33.6139 O   0  0  0  0  0  0  0  0  0  0  0  0
   21.2483   49.1322   34.5643 O   0  0  0  0  0  0  0  0  0  0  0  0
   20.3158   51.0429   33.1930 O   0  0  0  0  0  0  0  0  0  0  0  0
   22.3783   51.7287   36.9007 S   0  0  0  0  0  0  0  0  0  0  0  0
   23.5779   52.3119   36.2952 O   0  0  0  0  0  0  0  0  0  0  0  0
   22.5729   50.4218   37.5345 O   0  0  0  0  0  0  0  0  0  0  0  0
   21.8208   52.6885   37.8801 O   0  0  0  0  0  0  0  0  0  0  0  0
   15.7129   55.7547   39.0165 H   0  0  0  0  0  0  0  0  0  0  0  0
   15.3189   57.4241   40.8137 H   0  0  0  0  0  0  0  0  0  0  0  0
   13.7792   56.8886   42.6904 H   0  0  0  0  0  0  0  0  0  0  0  0
   12.6542   54.6727   42.7830 H   0  0  0  0  0  0  0  0  0  0  0  0
   13.0387   53.0162   40.9638 H   0  0  0  0  0  0  0  0  0  0  0  0
   15.4654   52.2741   36.7796 H   0  0  0  0  0  0  0  0  0  0  0  0
   15.9851   52.5593   41.0554 H   0  0  0  0  0  0  0  0  0  0  0  0
   17.7586   50.8560   40.9440 H   0  0  0  0  0  0  0  0  0  0  0  0
   18.3725   49.8284   38.7903 H   0  0  0  0  0  0  0  0  0  0  0  0
   16.4661   50.3116   35.6645 H   0  0  0  0  0  0  0  0  0  0  0  0
   17.6338   49.3028   36.4791 H   0  0  0  0  0  0  0  0  0  0  0  0
   18.1675   52.1357   35.3952 H   0  0  0  0  0  0  0  0  0  0  0  0
   18.6035   50.5946   34.6600 H   0  0  0  0  0  0  0  0  0  0  0  0
   19.9643   50.0834   36.7771 H   0  0  0  0  0  0  0  0  0  0  0  0
   19.6154   51.7223   37.3052 H   0  0  0  0  0  0  0  0  0  0  0  0
   20.8720   52.6349   35.3349 H   0  0  0  0  0  0  0  0  0  0  0  0
  1  2  2  0  0  0  0
  1  6  1  0  0  0  0
  1 26  1  0  0  0  0
  2  3  1  0  0  0  0
  2 27  1  0  0  0  0
  3  4  2  0  0  0  0
  3 28  1  0  0  0  0
  4  5  1  0  0  0  0
  4 29  1  0  0  0  0
  5  6  2  0  0  0  0
  5 30  1  0  0  0  0
  6  7  1  0  0  0  0
  7  8  1  0  0  0  0
  8  9  2  0  0  0  0
  8 10  1  0  0  0  0
  9 13  1  0  0  0  0
  9 31  1  0  0  0  0
 10 11  2  0  0  0  0
 10 32  1  0  0  0  0
 11 12  1  0  0  0  0
 11 33  1  0  0  0  0
 12 13  2  0  0  0  0
 12 34  1  0  0  0  0
 13 14  1  0  0  0  0
 14 15  1  0  0  0  0
 14 35  1  0  0  0  0
 14 36  1  0  0  0  0
 15 16  1  0  0  0  0
 15 37  1  0  0  0  0
 15 38  1  0  0  0  0
 16 17  1  0  0  0  0
 16 39  1  0  0  0  0
 16 40  1  0  0  0  0
 17 18  1  0  0  0  0
 17 22  1  0  0  0  0
 17 41  1  6  0  0  0
 18 19  2  0  0  0  0
 18 20  1  0  0  0  0
 18 21  1  0  0  0  0
 22 23  2  0  0  0  0
 22 24  2  0  0  0  0
 22 25  1  0  0  0  0
M  END
$$$$
