B70
 OpenBabel04051920513D

 40 41  0  0  1  0  0  0  0  0999 V2000
   57.9174   19.2444   54.4142 C   0  0  0  0  0  0  0  0  0  0  0  0
   58.2074   20.5878   54.6801 C   0  0  0  0  0  0  0  0  0  0  0  0
   57.9790   21.5462   53.7066 C   0  0  0  0  0  0  0  0  0  0  0  0
   57.4792   21.1822   52.4605 C   0  0  0  0  0  0  0  0  0  0  0  0
   57.2142   19.8359   52.1924 C   0  0  0  0  0  0  0  0  0  0  0  0
   57.4119   18.8499   53.1670 C   0  0  0  0  0  0  0  0  0  0  0  0
   57.0655   17.4349   52.9038 C   0  0  0  0  0  0  0  0  0  0  0  0
   56.1761   17.0984   51.8644 C   0  0  0  0  0  0  0  0  0  0  0  0
   55.8447   15.7750   51.5925 C   0  0  0  0  0  0  0  0  0  0  0  0
   57.5866   16.3898   53.6764 C   0  0  0  0  0  0  0  0  0  0  0  0
   57.2289   15.0694   53.4330 C   0  0  0  0  0  0  0  0  0  0  0  0
   56.3797   14.7537   52.3701 C   0  0  0  0  0  0  0  0  0  0  0  0
   56.0268   13.3193   52.0816 C   0  0  0  0  0  0  0  0  0  0  0  0
   57.2690   12.4763   51.8046 C   0  0  0  0  0  0  0  0  0  0  0  0
   56.9272   11.0338   51.4173 C   0  0  0  0  0  0  0  0  0  0  0  0
   56.2399   10.2049   52.5382 C   0  0  2  0  0  0  0  0  0  0  0  0
   57.3139   10.0777   54.0503 P   0  0  0  0  0  0  0  0  0  0  0  0
   57.1224    8.7604   54.7809 O   0  0  0  0  0  0  0  0  0  0  0  0
   58.7511   10.3033   53.5612 O   0  0  0  0  0  0  0  0  0  0  0  0
   56.8292   11.2816   54.8840 O   0  0  0  0  0  0  0  0  0  0  0  0
   55.6544    8.6285   51.8899 S   0  0  0  0  0  0  0  0  0  0  0  0
   54.6810    9.0689   50.8512 O   0  0  0  0  0  0  0  0  0  0  0  0
   54.9394    7.8779   52.9210 O   0  0  0  0  0  0  0  0  0  0  0  0
   56.7816    7.9356   51.2602 O   0  0  0  0  0  0  0  0  0  0  0  0
   58.0850   18.5267   55.2115 H   0  0  0  0  0  0  0  0  0  0  0  0
   58.6016   20.8589   55.6470 H   0  0  0  0  0  0  0  0  0  0  0  0
   58.1903   22.5872   53.9139 H   0  0  0  0  0  0  0  0  0  0  0  0
   57.2915   21.9219   51.6879 H   0  0  0  0  0  0  0  0  0  0  0  0
   56.8485   19.5859   51.2048 H   0  0  0  0  0  0  0  0  0  0  0  0
   55.7059   17.8527   51.2427 H   0  0  0  0  0  0  0  0  0  0  0  0
   55.1703   15.5463   50.7743 H   0  0  0  0  0  0  0  0  0  0  0  0
   58.2853   16.5581   54.4890 H   0  0  0  0  0  0  0  0  0  0  0  0
   57.6232   14.2706   54.0693 H   0  0  0  0  0  0  0  0  0  0  0  0
   55.3668   13.2796   51.2068 H   0  0  0  0  0  0  0  0  0  0  0  0
   55.4566   12.9400   52.9338 H   0  0  0  0  0  0  0  0  0  0  0  0
   57.9351   12.4901   52.6720 H   0  0  0  0  0  0  0  0  0  0  0  0
   57.8479   12.9382   50.9919 H   0  0  0  0  0  0  0  0  0  0  0  0
   57.8608   10.5347   51.1318 H   0  0  0  0  0  0  0  0  0  0  0  0
   56.3103   11.0590   50.5106 H   0  0  0  0  0  0  0  0  0  0  0  0
   55.3176   10.7190   52.8432 H   0  0  0  0  0  0  0  0  0  0  0  0
  1  2  2  0  0  0  0
  1  6  1  0  0  0  0
  1 25  1  0  0  0  0
  2  3  1  0  0  0  0
  2 26  1  0  0  0  0
  3  4  2  0  0  0  0
  3 27  1  0  0  0  0
  4  5  1  0  0  0  0
  4 28  1  0  0  0  0
  5  6  2  0  0  0  0
  5 29  1  0  0  0  0
  6  7  1  0  0  0  0
  7  8  2  0  0  0  0
  7 10  1  0  0  0  0
  8  9  1  0  0  0  0
  8 30  1  0  0  0  0
  9 12  2  0  0  0  0
  9 31  1  0  0  0  0
 10 11  2  0  0  0  0
 10 32  1  0  0  0  0
 11 12  1  0  0  0  0
 11 33  1  0  0  0  0
 12 13  1  0  0  0  0
 13 14  1  0  0  0  0
 13 34  1  0  0  0  0
 13 35  1  0  0  0  0
 14 15  1  0  0  0  0
 14 36  1  0  0  0  0
 14 37  1  0  0  0  0
 15 16  1  0  0  0  0
 15 38  1  0  0  0  0
 15 39  1  0  0  0  0
 16 17  1  0  0  0  0
 16 21  1  0  0  0  0
 16 40  1  1  0  0  0
 17 18  2  0  0  0  0
 17 19  1  0  0  0  0
 17 20  1  0  0  0  0
 21 22  2  0  0  0  0
 21 23  2  0  0  0  0
 21 24  1  0  0  0  0
M  END
$$$$
