BDE
 OpenBabel04051918033D

 29 30  0  0  0  0  0  0  0  0999 V2000
  -72.6211   33.3292  129.1265 C   0  0  0  0  0  0  0  0  0  0  0  0
  -72.5754   31.9511  129.0482 C   0  0  0  0  0  0  0  0  0  0  0  0
  -71.3621   31.3492  129.2673 C   0  0  0  0  0  0  0  0  0  0  0  0
  -70.2255   32.0342  129.5389 N   0  0  0  0  0  0  0  0  0  0  0  0
  -70.3186   33.3950  129.6073 C   0  0  0  0  0  0  0  0  0  0  0  0
  -71.4926   34.0875  129.4412 C   0  0  0  0  0  0  0  0  0  0  0  0
  -71.5165   35.5445  129.7289 C   0  0  0  0  0  0  0  0  0  0  0  0
  -70.5059   36.1795  129.9898 O   0  0  0  0  0  0  0  0  0  0  0  0
  -72.7308   36.1760  129.7965 N   0  0  0  0  0  0  0  0  0  0  0  0
  -73.8609   35.6868  129.2910 N   0  0  0  0  0  0  0  0  0  0  0  0
  -74.8766   36.3796  129.5802 C   0  0  0  0  0  0  0  0  0  0  0  0
  -76.0904   36.2773  128.7886 C   0  0  0  0  0  0  0  0  0  0  0  0
  -77.1752   37.0067  129.2292 C   0  0  0  0  0  0  0  0  0  0  0  0
  -78.3778   36.8619  128.5587 C   0  0  0  0  0  0  0  0  0  0  0  0
  -79.9347   37.6899  129.3130 Br  0  0  0  0  0  0  0  0  0  0  0  0
  -78.4984   36.0878  127.3991 C   0  0  0  0  0  0  0  0  0  0  0  0
  -79.6275   35.9933  126.7582 O   0  0  0  0  0  0  0  0  0  0  0  0
  -77.3376   35.4549  126.9342 C   0  0  0  0  0  0  0  0  0  0  0  0
  -77.3387   34.7068  125.1634 Br  0  0  0  0  0  0  0  0  0  0  0  0
  -76.1390   35.4979  127.6385 C   0  0  0  0  0  0  0  0  0  0  0  0
  -75.0623   34.7818  127.1730 O   0  0  0  0  0  0  0  0  0  0  0  0
  -73.5741   33.7708  128.9647 H   0  0  0  0  0  0  0  0  0  0  0  0
  -73.4769   31.3731  128.8170 H   0  0  0  0  0  0  0  0  0  0  0  0
  -71.2696   30.2643  129.2216 H   0  0  0  0  0  0  0  0  0  0  0  0
  -69.3873   33.9148  129.8326 H   0  0  0  0  0  0  0  0  0  0  0  0
  -72.7481   37.1546  130.0359 H   0  0  0  0  0  0  0  0  0  0  0  0
  -74.8747   37.1534  130.3916 H   0  0  0  0  0  0  0  0  0  0  0  0
  -77.1015   37.6288  130.1160 H   0  0  0  0  0  0  0  0  0  0  0  0
  -74.3181   34.9690  127.7745 H   0  0  0  0  0  0  0  0  0  0  0  0
  1  2  2  0  0  0  0
  1  6  1  0  0  0  0
  1 22  1  0  0  0  0
  2  3  1  0  0  0  0
  2 23  1  0  0  0  0
  3  4  2  0  0  0  0
  3 24  1  0  0  0  0
  4  5  1  0  0  0  0
  5  6  2  0  0  0  0
  5 25  1  0  0  0  0
  6  7  1  0  0  0  0
  7  8  2  0  0  0  0
  7  9  1  0  0  0  0
  9 10  1  0  0  0  0
  9 26  1  0  0  0  0
 10 11  2  0  0  0  0
 11 12  1  0  0  0  0
 11 27  1  0  0  0  0
 12 13  2  0  0  0  0
 12 20  1  0  0  0  0
 13 14  1  0  0  0  0
 13 28  1  0  0  0  0
 14 15  1  0  0  0  0
 14 16  2  0  0  0  0
 16 17  1  0  0  0  0
 16 18  1  0  0  0  0
 18 19  1  0  0  0  0
 18 20  2  0  0  0  0
 20 21  1  0  0  0  0
 21 29  1  0  0  0  0
M  END
$$$$
