BDI
 OpenBabel04051920493D

 27 28  0  0  0  0  0  0  0  0999 V2000
   15.3768   16.8310   20.6262 N   0  3  0  0  0  0  0  0  0  0  0  0
   16.5483   17.0935   19.9514 C   0  0  0  0  0  0  0  0  0  0  0  0
   16.6593   17.0458   18.4675 C   0  0  0  0  0  0  0  0  0  0  0  0
   16.4329   18.4275   17.8553 C   0  0  0  0  0  0  0  0  0  0  0  0
   16.6028   18.3882   16.3380 C   0  0  0  0  0  0  0  0  0  0  0  0
   16.2976   19.7380   15.7109 C   0  0  0  0  0  0  0  0  0  0  0  0
   17.5227   17.3932   20.7889 N   0  0  0  0  0  0  0  0  0  0  0  0
   16.9647   17.3281   22.0419 C   0  0  0  0  0  0  0  0  0  0  0  0
   17.6078   17.5769   23.3228 C   0  0  0  0  0  0  0  0  0  0  0  0
   16.7557   17.4254   24.4134 N   0  3  0  0  0  0  0  0  0  0  0  0
   15.3867   17.0638   24.2968 N   0  3  0  0  0  0  0  0  0  0  0  0
   14.7666   16.8272   23.0776 C   0  0  0  0  0  0  0  0  0  0  0  0
   13.5830   16.5173   22.9962 O   0  0  0  0  0  0  0  0  0  0  0  0
   15.6364   16.9803   21.9586 C   0  0  0  0  0  0  0  0  0  0  0  0
   18.7842   17.8934   23.4732 O   0  0  0  0  0  0  0  0  0  0  0  0
   14.4857   16.5804   20.2166 H   0  0  0  0  0  0  0  0  0  0  0  0
   15.9417   16.3260   18.0567 H   0  0  0  0  0  0  0  0  0  0  0  0
   17.6608   16.6845   18.2035 H   0  0  0  0  0  0  0  0  0  0  0  0
   17.1408   19.1488   18.2846 H   0  0  0  0  0  0  0  0  0  0  0  0
   15.4271   18.7860   18.1089 H   0  0  0  0  0  0  0  0  0  0  0  0
   15.9363   17.6324   15.9072 H   0  0  0  0  0  0  0  0  0  0  0  0
   17.6297   18.0966   16.0878 H   0  0  0  0  0  0  0  0  0  0  0  0
   16.4220   19.6875   14.6249 H   0  0  0  0  0  0  0  0  0  0  0  0
   16.9697   20.5111   16.0963 H   0  0  0  0  0  0  0  0  0  0  0  0
   15.2671   20.0417   15.9213 H   0  0  0  0  0  0  0  0  0  0  0  0
   17.1494   17.5884   25.3332 H   0  0  0  0  0  0  0  0  0  0  0  0
   14.8313   16.9750   25.1407 H   0  0  0  0  0  0  0  0  0  0  0  0
  1  2  2  0  0  0  0
  1 14  1  0  0  0  0
  1 16  1  0  0  0  0
  2  3  1  0  0  0  0
  2  7  1  0  0  0  0
  3  4  1  0  0  0  0
  3 17  1  0  0  0  0
  3 18  1  0  0  0  0
  4  5  1  0  0  0  0
  4 19  1  0  0  0  0
  4 20  1  0  0  0  0
  5  6  1  0  0  0  0
  5 21  1  0  0  0  0
  5 22  1  0  0  0  0
  6 23  1  0  0  0  0
  6 24  1  0  0  0  0
  6 25  1  0  0  0  0
  7  8  1  0  0  0  0
  8  9  1  0  0  0  0
  8 14  2  0  0  0  0
  9 10  1  0  0  0  0
  9 15  2  0  0  0  0
 10 11  1  0  0  0  0
 10 26  1  0  0  0  0
 11 12  1  0  0  0  0
 11 27  1  0  0  0  0
 12 13  2  0  0  0  0
 12 14  1  0  0  0  0
M  CHG  3   1   1  10   1  11   1
M  END
$$$$
