BFQ
 OpenBabel04051917553D

 39 38  0  0  1  0  0  0  0  0999 V2000
   15.1848   75.5901   24.3421 P   0  0  0  0  0  0  0  0  0  0  0  0
   16.5120   75.4350   23.6114 O   0  0  0  0  0  0  0  0  0  0  0  0
   14.7428   74.4550   25.2642 O   0  0  0  0  0  0  0  0  0  0  0  0
   14.0498   76.0337   23.3853 O   0  0  0  0  0  0  0  0  0  0  0  0
   15.3313   77.2700   25.5862 C   0  0  0  0  0  0  0  0  0  0  0  0
   16.6279   77.6767   27.1486 P   0  0  0  0  0  0  0  0  0  0  0  0
   18.0529   77.5813   26.6240 O   0  0  0  0  0  0  0  0  0  0  0  0
   16.3097   79.1483   27.5072 O   0  0  0  0  0  0  0  0  0  0  0  0
   16.2255   76.7415   28.2861 O   0  0  0  0  0  0  0  0  0  0  0  0
   14.0288   77.1819   26.2623 O   0  0  0  0  0  0  0  0  0  0  0  0
   15.4199   78.4350   24.5912 C   0  0  0  0  0  0  0  0  0  0  0  0
   14.2420   79.3763   24.5807 C   0  0  0  0  0  0  0  0  0  0  0  0
   14.2077   80.5193   25.6029 N   0  3  2  0  0  0  0  0  0  0  0  0
   15.5390   81.2007   25.8406 C   0  0  0  0  0  0  0  0  0  0  0  0
   15.5511   82.6107   25.2159 C   0  0  0  0  0  0  0  0  0  0  0  0
   16.7691   82.7750   24.3014 C   0  0  0  0  0  0  0  0  0  0  0  0
   17.0778   84.2300   23.9419 C   0  0  0  0  0  0  0  0  0  0  0  0
   18.1912   84.2914   22.9078 C   0  0  0  0  0  0  0  0  0  0  0  0
   13.6034   80.0461   26.9035 C   0  0  0  0  0  0  0  0  0  0  0  0
   14.1560   76.2676   26.6205 H   0  0  0  0  0  0  0  0  0  0  0  0
   15.4591   78.0207   23.5776 H   0  0  0  0  0  0  0  0  0  0  0  0
   16.4002   78.9063   24.6649 H   0  0  0  0  0  0  0  0  0  0  0  0
   13.2732   78.8667   24.6310 H   0  0  0  0  0  0  0  0  0  0  0  0
   14.2418   79.9069   23.6202 H   0  0  0  0  0  0  0  0  0  0  0  0
   16.3505   80.6104   25.4432 H   0  0  0  0  0  0  0  0  0  0  0  0
   15.6812   81.3243   26.9254 H   0  0  0  0  0  0  0  0  0  0  0  0
   15.6049   83.3502   26.0247 H   0  0  0  0  0  0  0  0  0  0  0  0
   14.6398   82.8323   24.6479 H   0  0  0  0  0  0  0  0  0  0  0  0
   16.5958   82.1969   23.3851 H   0  0  0  0  0  0  0  0  0  0  0  0
   17.6544   82.3502   24.7896 H   0  0  0  0  0  0  0  0  0  0  0  0
   17.3897   84.7715   24.8431 H   0  0  0  0  0  0  0  0  0  0  0  0
   16.1849   84.7297   23.5519 H   0  0  0  0  0  0  0  0  0  0  0  0
   18.4515   85.3285   22.6785 H   0  0  0  0  0  0  0  0  0  0  0  0
   17.8802   83.8052   21.9747 H   0  0  0  0  0  0  0  0  0  0  0  0
   19.0921   83.7854   23.2692 H   0  0  0  0  0  0  0  0  0  0  0  0
   12.5857   79.7012   26.6899 H   0  0  0  0  0  0  0  0  0  0  0  0
   13.5371   80.9164   27.5628 H   0  0  0  0  0  0  0  0  0  0  0  0
   14.1706   79.2582   27.3734 H   0  0  0  0  0  0  0  0  0  0  0  0
   13.5416   81.1795   25.2323 H   0  0  0  0  0  0  0  0  0  0  0  0
  1  2  2  0  0  0  0
  1  3  1  0  0  0  0
  1  4  1  0  0  0  0
  1  5  1  0  0  0  0
  5  6  1  0  0  0  0
  5 10  1  0  0  0  0
  5 11  1  0  0  0  0
  6  7  2  0  0  0  0
  6  8  1  0  0  0  0
  6  9  1  0  0  0  0
 10 20  1  0  0  0  0
 11 12  1  0  0  0  0
 11 21  1  0  0  0  0
 11 22  1  0  0  0  0
 12 13  1  0  0  0  0
 12 23  1  0  0  0  0
 12 24  1  0  0  0  0
 13 14  1  0  0  0  0
 13 19  1  0  0  0  0
 13 39  1  6  0  0  0
 14 15  1  0  0  0  0
 14 25  1  0  0  0  0
 14 26  1  0  0  0  0
 15 16  1  0  0  0  0
 15 27  1  0  0  0  0
 15 28  1  0  0  0  0
 16 17  1  0  0  0  0
 16 29  1  0  0  0  0
 16 30  1  0  0  0  0
 17 18  1  0  0  0  0
 17 31  1  0  0  0  0
 17 32  1  0  0  0  0
 18 33  1  0  0  0  0
 18 34  1  0  0  0  0
 18 35  1  0  0  0  0
 19 36  1  0  0  0  0
 19 37  1  0  0  0  0
 19 38  1  0  0  0  0
M  CHG  1  13   1
M  END
$$$$
