BHM
 OpenBabel04051917213D

 31 31  0  0  1  0  0  0  0  0999 V2000
   30.7963    1.5140    6.3384 Br  0  0  0  0  0  0  0  0  0  0  0  0
   30.2817    0.0299    5.1709 C   0  0  0  0  0  0  0  0  0  0  0  0
   29.8359    0.5141    3.7897 C   0  0  1  0  0  0  0  0  0  0  0  0
   30.8502    1.2921    3.1413 O   0  0  0  0  0  0  0  0  0  0  0  0
   29.5029   -0.6837    2.8967 C   0  0  0  0  0  0  0  0  0  0  0  0
   28.5461    1.3070    3.9577 C   0  0  0  0  0  0  0  0  0  0  0  0
   27.5131    0.7606    4.3305 O   0  0  0  0  0  0  0  0  0  0  0  0
   28.7267    2.6512    3.6868 N   0  0  0  0  0  0  0  0  0  0  0  0
   27.7519    3.6472    3.7297 C   0  0  0  0  0  0  0  0  0  0  0  0
   26.4164    3.3744    4.0185 C   0  0  0  0  0  0  0  0  0  0  0  0
   28.1501    4.9496    3.4590 C   0  0  0  0  0  0  0  0  0  0  0  0
   27.2086    5.9742    3.5055 C   0  0  0  0  0  0  0  0  0  0  0  0
   25.8583    5.6974    3.8058 C   0  0  0  0  0  0  0  0  0  0  0  0
   24.9500    6.8505    3.9067 N   0  0  0  0  0  0  0  0  0  0  0  0
   23.8090    6.6667    4.3362 O   0  0  0  0  0  0  0  0  0  0  0  0
   25.4002    7.9584    3.5836 O   0  0  0  0  0  0  0  0  0  0  0  0
   25.4352    4.3787    4.0319 C   0  0  0  0  0  0  0  0  0  0  0  0
   24.0110    3.9505    4.2833 C   0  0  0  0  0  0  0  0  0  0  0  0
   23.5658    4.2919    5.5198 F   0  0  0  0  0  0  0  0  0  0  0  0
   23.1366    4.4462    3.3689 F   0  0  0  0  0  0  0  0  0  0  0  0
   23.8440    2.5951    4.2083 F   0  0  0  0  0  0  0  0  0  0  0  0
   29.4907   -0.5127    5.6990 H   0  0  0  0  0  0  0  0  0  0  0  0
   31.1750   -0.5953    5.1029 H   0  0  0  0  0  0  0  0  0  0  0  0
   31.6643    0.7573    3.1044 H   0  0  0  0  0  0  0  0  0  0  0  0
   29.1618   -0.3449    1.9110 H   0  0  0  0  0  0  0  0  0  0  0  0
   28.7076   -1.3019    3.3296 H   0  0  0  0  0  0  0  0  0  0  0  0
   30.3838   -1.3118    2.7384 H   0  0  0  0  0  0  0  0  0  0  0  0
   29.6807    2.8973    3.4303 H   0  0  0  0  0  0  0  0  0  0  0  0
   26.0930    2.3584    4.2311 H   0  0  0  0  0  0  0  0  0  0  0  0
   29.1849    5.1889    3.2235 H   0  0  0  0  0  0  0  0  0  0  0  0
   27.5492    6.9901    3.3113 H   0  0  0  0  0  0  0  0  0  0  0  0
  1  2  1  0  0  0  0
  2 22  1  0  0  0  0
  2 23  1  0  0  0  0
  3  2  1  1  0  0  0
  3  4  1  0  0  0  0
  3  5  1  0  0  0  0
  3  6  1  0  0  0  0
  4 24  1  0  0  0  0
  5 25  1  0  0  0  0
  5 26  1  0  0  0  0
  5 27  1  0  0  0  0
  6  7  2  0  0  0  0
  6  8  1  0  0  0  0
  8  9  1  0  0  0  0
  8 28  1  0  0  0  0
  9 10  2  0  0  0  0
  9 11  1  0  0  0  0
 10 17  1  0  0  0  0
 10 29  1  0  0  0  0
 11 12  2  0  0  0  0
 11 30  1  0  0  0  0
 12 13  1  0  0  0  0
 12 31  1  0  0  0  0
 13 14  1  0  0  0  0
 13 17  2  0  0  0  0
 14 15  2  0  0  0  0
 14 16  2  0  0  0  0
 17 18  1  0  0  0  0
 18 19  1  0  0  0  0
 18 20  1  0  0  0  0
 18 21  1  0  0  0  0
M  END
$$$$
