BSD
 OpenBabel04051919413D

 90 93  0  0  1  0  0  0  0  0999 V2000
    4.4048   -5.1875   33.1134 C   0  0  0  0  0  0  0  0  0  0  0  0
    5.2267   -4.3600   33.8960 C   0  0  0  0  0  0  0  0  0  0  0  0
    4.6880   -3.6477   34.9724 C   0  0  0  0  0  0  0  0  0  0  0  0
    3.3245   -3.7582   35.2702 C   0  0  0  0  0  0  0  0  0  0  0  0
    2.5003   -4.5862   34.4877 C   0  0  0  0  0  0  0  0  0  0  0  0
    3.0284   -5.3155   33.4005 C   0  0  0  0  0  0  0  0  0  0  0  0
    2.1660   -6.2124   32.5070 C   0  0  1  0  0  0  0  0  0  0  0  0
    1.4782   -7.3523   33.2590 C   0  0  0  0  0  0  0  0  0  0  0  0
    1.1189   -5.4349   31.8354 N   0  0  0  0  0  0  0  0  0  0  0  0
    1.1663   -5.1068   30.4968 C   0  0  0  0  0  0  0  0  0  0  0  0
    2.0655   -5.4775   29.7737 O   0  0  0  0  0  0  0  0  0  0  0  0
    0.0164   -4.2452   29.9871 C   0  0  0  0  0  0  0  0  0  0  0  0
    0.2267   -3.3503   28.9121 C   0  0  0  0  0  0  0  0  0  0  0  0
   -0.7967   -2.4961   28.4481 C   0  0  0  0  0  0  0  0  0  0  0  0
   -2.0853   -2.6223   29.0398 C   0  0  0  0  0  0  0  0  0  0  0  0
   -2.3084   -3.5033   30.1154 C   0  0  0  0  0  0  0  0  0  0  0  0
   -1.2595   -4.3163   30.5766 C   0  0  0  0  0  0  0  0  0  0  0  0
   -0.5426   -1.5575   27.3141 N   0  0  0  0  0  0  0  0  0  0  0  0
   -1.6653   -0.6306   26.9291 C   0  0  0  0  0  0  0  0  0  0  0  0
    0.9994   -0.6361   27.3348 S   0  0  0  0  0  0  0  0  0  0  0  0
    0.7552    0.6494   26.7034 O   0  0  0  0  0  0  0  0  0  0  0  0
    1.5401   -0.6521   28.6789 O   0  0  0  0  0  0  0  0  0  0  0  0
    2.0705   -1.5644   26.1934 C   0  0  0  0  0  0  0  0  0  0  0  0
   -3.7053   -3.6187   30.7143 C   0  0  0  0  0  0  0  0  0  0  0  0
   -4.6845   -3.6047   30.0282 O   0  0  0  0  0  0  0  0  0  0  0  0
   -3.7613   -3.6458   32.1207 N   0  0  0  0  0  0  0  0  0  0  0  0
   -4.9267   -4.1575   32.8786 C   0  0  1  0  0  0  0  0  0  0  0  0
   -4.5787   -5.5160   33.5922 C   0  0  0  0  0  0  0  0  0  0  0  0
   -3.7610   -6.5811   32.8821 C   0  0  0  0  0  0  0  0  0  0  0  0
   -4.0421   -6.9648   31.5606 C   0  0  0  0  0  0  0  0  0  0  0  0
   -3.2904   -7.9736   30.9323 C   0  0  0  0  0  0  0  0  0  0  0  0
   -2.2623   -8.6244   31.6285 C   0  0  0  0  0  0  0  0  0  0  0  0
   -1.9834   -8.2651   32.9508 C   0  0  0  0  0  0  0  0  0  0  0  0
   -2.7273   -7.2526   33.5790 C   0  0  0  0  0  0  0  0  0  0  0  0
   -5.3689   -3.1855   34.0325 C   0  0  2  0  0  0  0  0  0  0  0  0
   -6.6905   -3.4426   34.5130 O   0  0  0  0  0  0  0  0  0  0  0  0
   -5.2878   -1.6770   33.7880 C   0  0  0  0  0  0  0  0  0  0  0  0
   -6.0632   -1.1326   32.6414 N   0  3  0  0  0  0  0  0  0  0  0  0
   -7.2727   -0.2805   32.9192 C   0  0  0  0  0  0  0  0  0  0  0  0
   -8.5214   -0.9248   32.3716 C   0  0  0  0  0  0  0  0  0  0  0  0
   -9.2999   -1.7543   33.2175 C   0  0  0  0  0  0  0  0  0  0  0  0
  -10.4488   -2.3958   32.7449 C   0  0  0  0  0  0  0  0  0  0  0  0
  -10.7896   -2.2510   31.3919 C   0  0  0  0  0  0  0  0  0  0  0  0
  -10.0356   -1.4250   30.5366 C   0  0  0  0  0  0  0  0  0  0  0  0
   -8.8968   -0.7655   31.0239 C   0  0  0  0  0  0  0  0  0  0  0  0
  -11.1983   -3.2807   33.4816 O   0  0  0  0  0  0  0  0  0  0  0  0
  -11.8745   -2.8182   34.6644 C   0  0  0  0  0  0  0  0  0  0  0  0
    4.8398   -5.7350   32.2730 H   0  0  0  0  0  0  0  0  0  0  0  0
    6.2901   -4.2736   33.6599 H   0  0  0  0  0  0  0  0  0  0  0  0
    5.3334   -3.0087   35.5756 H   0  0  0  0  0  0  0  0  0  0  0  0
    2.9097   -3.1984   36.1129 H   0  0  0  0  0  0  0  0  0  0  0  0
    1.4426   -4.6598   34.7308 H   0  0  0  0  0  0  0  0  0  0  0  0
    2.8166   -6.6742   31.7505 H   0  0  0  0  0  0  0  0  0  0  0  0
    0.8800   -7.9592   32.5631 H   0  0  0  0  0  0  0  0  0  0  0  0
    0.7992   -6.9571   34.0248 H   0  0  0  0  0  0  0  0  0  0  0  0
    2.2069   -8.0097   33.7432 H   0  0  0  0  0  0  0  0  0  0  0  0
    0.3607   -5.1008   32.3989 H   0  0  0  0  0  0  0  0  0  0  0  0
    1.2177   -3.2923   28.4702 H   0  0  0  0  0  0  0  0  0  0  0  0
   -2.9166   -2.0070   28.7053 H   0  0  0  0  0  0  0  0  0  0  0  0
   -1.4425   -5.0259   31.3833 H   0  0  0  0  0  0  0  0  0  0  0  0
   -2.6368   -1.1377   26.8990 H   0  0  0  0  0  0  0  0  0  0  0  0
   -1.4907   -0.2119   25.9315 H   0  0  0  0  0  0  0  0  0  0  0  0
   -1.7206    0.1881   27.6582 H   0  0  0  0  0  0  0  0  0  0  0  0
    3.0395   -1.0453   26.1697 H   0  0  0  0  0  0  0  0  0  0  0  0
    1.6558   -1.5592   25.1772 H   0  0  0  0  0  0  0  0  0  0  0  0
    2.2294   -2.5924   26.5253 H   0  0  0  0  0  0  0  0  0  0  0  0
   -2.9189   -3.4265   32.6246 H   0  0  0  0  0  0  0  0  0  0  0  0
   -5.7790   -4.3017   32.2027 H   0  0  0  0  0  0  0  0  0  0  0  0
   -5.5262   -5.9723   33.9137 H   0  0  0  0  0  0  0  0  0  0  0  0
   -4.0199   -5.2546   34.5078 H   0  0  0  0  0  0  0  0  0  0  0  0
   -4.8414   -6.4708   31.0067 H   0  0  0  0  0  0  0  0  0  0  0  0
   -3.5067   -8.2591   29.8979 H   0  0  0  0  0  0  0  0  0  0  0  0
   -1.6881   -9.4115   31.1361 H   0  0  0  0  0  0  0  0  0  0  0  0
   -1.1782   -8.7751   33.4963 H   0  0  0  0  0  0  0  0  0  0  0  0
   -2.4947   -6.9870   34.6136 H   0  0  0  0  0  0  0  0  0  0  0  0
   -4.6896   -3.3653   34.8772 H   0  0  0  0  0  0  0  0  0  0  0  0
   -6.7296   -4.3467   34.8730 H   0  0  0  0  0  0  0  0  0  0  0  0
   -4.2461   -1.4235   33.5994 H   0  0  0  0  0  0  0  0  0  0  0  0
   -5.6488   -1.1632   34.6777 H   0  0  0  0  0  0  0  0  0  0  0  0
   -5.4147   -0.5775   32.0714 H   0  0  0  0  0  0  0  0  0  0  0  0
   -7.1039    0.7041   32.4513 H   0  0  0  0  0  0  0  0  0  0  0  0
   -7.3519   -0.1232   34.0012 H   0  0  0  0  0  0  0  0  0  0  0  0
   -8.9885   -1.8842   34.2546 H   0  0  0  0  0  0  0  0  0  0  0  0
  -11.6703   -2.7652   31.0047 H   0  0  0  0  0  0  0  0  0  0  0  0
  -10.3459   -1.3038   29.4920 H   0  0  0  0  0  0  0  0  0  0  0  0
   -8.3176   -0.1297   30.3516 H   0  0  0  0  0  0  0  0  0  0  0  0
  -12.4462   -3.6647   35.0944 H   0  0  0  0  0  0  0  0  0  0  0  0
  -12.5949   -2.0256   34.4328 H   0  0  0  0  0  0  0  0  0  0  0  0
  -11.1693   -2.4768   35.4283 H   0  0  0  0  0  0  0  0  0  0  0  0
   -6.3810   -1.9156   32.0537 H   0  0  0  0  0  0  0  0  0  0  0  0
  1  2  2  0  0  0  0
  1  6  1  0  0  0  0
  1 48  1  0  0  0  0
  2  3  1  0  0  0  0
  2 49  1  0  0  0  0
  3  4  2  0  0  0  0
  3 50  1  0  0  0  0
  4  5  1  0  0  0  0
  4 51  1  0  0  0  0
  5  6  2  0  0  0  0
  5 52  1  0  0  0  0
  6  7  1  0  0  0  0
  7  8  1  0  0  0  0
  7  9  1  0  0  0  0
  7 53  1  6  0  0  0
  8 54  1  0  0  0  0
  8 55  1  0  0  0  0
  8 56  1  0  0  0  0
  9 10  1  0  0  0  0
  9 57  1  0  0  0  0
 10 11  2  0  0  0  0
 10 12  1  0  0  0  0
 12 13  2  0  0  0  0
 12 17  1  0  0  0  0
 13 14  1  0  0  0  0
 13 58  1  0  0  0  0
 14 15  2  0  0  0  0
 14 18  1  0  0  0  0
 15 16  1  0  0  0  0
 15 59  1  0  0  0  0
 16 17  2  0  0  0  0
 16 24  1  0  0  0  0
 17 60  1  0  0  0  0
 18 19  1  0  0  0  0
 18 20  1  0  0  0  0
 19 61  1  0  0  0  0
 19 62  1  0  0  0  0
 19 63  1  0  0  0  0
 20 21  2  0  0  0  0
 20 22  2  0  0  0  0
 20 23  1  0  0  0  0
 23 64  1  0  0  0  0
 23 65  1  0  0  0  0
 23 66  1  0  0  0  0
 24 25  2  0  0  0  0
 24 26  1  0  0  0  0
 26 27  1  0  0  0  0
 26 67  1  0  0  0  0
 27 28  1  0  0  0  0
 27 35  1  0  0  0  0
 27 68  1  6  0  0  0
 28 29  1  0  0  0  0
 28 69  1  0  0  0  0
 28 70  1  0  0  0  0
 29 30  2  0  0  0  0
 29 34  1  0  0  0  0
 30 31  1  0  0  0  0
 30 71  1  0  0  0  0
 31 32  2  0  0  0  0
 31 72  1  0  0  0  0
 32 33  1  0  0  0  0
 32 73  1  0  0  0  0
 33 34  2  0  0  0  0
 33 74  1  0  0  0  0
 34 75  1  0  0  0  0
 35 36  1  0  0  0  0
 35 37  1  0  0  0  0
 35 76  1  1  0  0  0
 36 77  1  0  0  0  0
 37 38  1  0  0  0  0
 37 78  1  0  0  0  0
 37 79  1  0  0  0  0
 38 39  1  0  0  0  0
 38 80  1  0  0  0  0
 38 90  1  0  0  0  0
 39 40  1  0  0  0  0
 39 81  1  0  0  0  0
 39 82  1  0  0  0  0
 40 41  2  0  0  0  0
 40 45  1  0  0  0  0
 41 42  1  0  0  0  0
 41 83  1  0  0  0  0
 42 43  2  0  0  0  0
 42 46  1  0  0  0  0
 43 44  1  0  0  0  0
 43 84  1  0  0  0  0
 44 45  2  0  0  0  0
 44 85  1  0  0  0  0
 45 86  1  0  0  0  0
 46 47  1  0  0  0  0
 47 87  1  0  0  0  0
 47 88  1  0  0  0  0
 47 89  1  0  0  0  0
M  CHG  1  38   1
M  END
$$$$
