BZ8
 OpenBabel04051920443D

 36 38  0  0  0  0  0  0  0  0999 V2000
   29.9479    9.2657   28.2283 N   0  0  0  0  0  0  0  0  0  0  0  0
   29.8864   10.1145   27.2167 N   0  0  0  0  0  0  0  0  0  0  0  0
   30.6907    9.7128   26.1556 C   0  0  0  0  0  0  0  0  0  0  0  0
   31.3879    8.5253   26.3585 C   0  0  0  0  0  0  0  0  0  0  0  0
   30.7627   10.5018   24.9338 C   0  0  0  0  0  0  0  0  0  0  0  0
   32.2743    7.7559   25.4919 C   0  0  0  0  0  0  0  0  0  0  0  0
   33.5571    7.3825   25.9075 C   0  0  0  0  0  0  0  0  0  0  0  0
   34.4058    6.6966   25.0311 C   0  0  0  0  0  0  0  0  0  0  0  0
   33.9868    6.3731   23.7390 C   0  0  0  0  0  0  0  0  0  0  0  0
   32.7082    6.7320   23.3241 C   0  0  0  0  0  0  0  0  0  0  0  0
   31.8601    7.4240   24.1945 C   0  0  0  0  0  0  0  0  0  0  0  0
   29.6054   10.8188   24.2113 C   0  0  0  0  0  0  0  0  0  0  0  0
   29.6673   11.5338   23.0148 C   0  0  0  0  0  0  0  0  0  0  0  0
   30.9070   11.9519   22.5354 C   0  0  0  0  0  0  0  0  0  0  0  0
   32.0725   11.6711   23.2560 C   0  0  0  0  0  0  0  0  0  0  0  0
   32.0016   10.9478   24.4495 C   0  0  0  0  0  0  0  0  0  0  0  0
   30.9844   12.6316   21.3509 O   0  0  0  0  0  0  0  0  0  0  0  0
   28.3811   10.3830   24.6343 O   0  0  0  0  0  0  0  0  0  0  0  0
   34.9172    5.7084   22.9925 O   0  0  0  0  0  0  0  0  0  0  0  0
   30.9640    7.9725   27.9317 S   0  0  0  0  0  0  0  0  0  0  0  0
   34.5604    5.3723   21.6538 C   0  0  0  0  0  0  0  0  0  0  0  0
   33.6199   12.1963   22.7013 Cl  0  0  0  0  0  0  0  0  0  0  0  0
   35.7203    4.5955   21.0625 C   0  0  0  0  0  0  0  0  0  0  0  0
   33.9221    7.6307   26.9000 H   0  0  0  0  0  0  0  0  0  0  0  0
   35.4073    6.4253   25.3549 H   0  0  0  0  0  0  0  0  0  0  0  0
   32.3374    6.4989   22.3317 H   0  0  0  0  0  0  0  0  0  0  0  0
   30.8700    7.7052   23.8428 H   0  0  0  0  0  0  0  0  0  0  0  0
   28.7560   11.7318   22.4602 H   0  0  0  0  0  0  0  0  0  0  0  0
   32.9180   10.7255   24.9925 H   0  0  0  0  0  0  0  0  0  0  0  0
   30.1001   12.7123   20.9585 H   0  0  0  0  0  0  0  0  0  0  0  0
   27.8345   11.1720   24.7943 H   0  0  0  0  0  0  0  0  0  0  0  0
   34.3900    6.2820   21.0647 H   0  0  0  0  0  0  0  0  0  0  0  0
   33.6638    4.7418   21.6394 H   0  0  0  0  0  0  0  0  0  0  0  0
   35.5098    4.2960   20.0322 H   0  0  0  0  0  0  0  0  0  0  0  0
   35.9209    3.6993   21.6593 H   0  0  0  0  0  0  0  0  0  0  0  0
   36.6341    5.1987   21.0787 H   0  0  0  0  0  0  0  0  0  0  0  0
  1  2  2  0  0  0  0
  1 20  1  0  0  0  0
  2  3  1  0  0  0  0
  3  4  2  0  0  0  0
  3  5  1  0  0  0  0
  4  6  1  0  0  0  0
  4 20  1  0  0  0  0
  5 12  2  0  0  0  0
  5 16  1  0  0  0  0
  6  7  2  0  0  0  0
  6 11  1  0  0  0  0
  7  8  1  0  0  0  0
  7 24  1  0  0  0  0
  8  9  2  0  0  0  0
  8 25  1  0  0  0  0
  9 10  1  0  0  0  0
  9 19  1  0  0  0  0
 10 11  2  0  0  0  0
 10 26  1  0  0  0  0
 11 27  1  0  0  0  0
 12 13  1  0  0  0  0
 12 18  1  0  0  0  0
 13 14  2  0  0  0  0
 13 28  1  0  0  0  0
 14 15  1  0  0  0  0
 14 17  1  0  0  0  0
 15 16  2  0  0  0  0
 15 22  1  0  0  0  0
 16 29  1  0  0  0  0
 17 30  1  0  0  0  0
 18 31  1  0  0  0  0
 19 21  1  0  0  0  0
 21 23  1  0  0  0  0
 21 32  1  0  0  0  0
 21 33  1  0  0  0  0
 23 34  1  0  0  0  0
 23 35  1  0  0  0  0
 23 36  1  0  0  0  0
M  END
$$$$
