C1B
 OpenBabel04051917243D

 62 65  0  0  1  0  0  0  0  0999 V2000
   -7.8544    5.4165   13.1822 C   0  0  0  0  0  0  0  0  0  0  0  0
   -7.6197    4.1223   12.6626 C   0  0  0  0  0  0  0  0  0  0  0  0
   -8.5822    3.4584   11.8821 C   0  0  0  0  0  0  0  0  0  0  0  0
   -9.7684    4.1386   11.6236 C   0  0  0  0  0  0  0  0  0  0  0  0
   -9.9688    5.4054   12.1275 C   0  0  0  0  0  0  0  0  0  0  0  0
   -9.0652    6.0743   12.9253 C   0  0  0  0  0  0  0  0  0  0  0  0
   -6.8554    6.1002   14.0130 C   0  0  0  0  0  0  0  0  0  0  0  0
   -6.8663    7.4149   14.1128 N   0  0  0  0  0  0  0  0  0  0  0  0
   -5.9512    5.3887   14.6580 N   0  0  0  0  0  0  0  0  0  0  0  0
  -10.8419    3.7311   10.9045 N   0  0  0  0  0  0  0  0  0  0  0  0
  -11.1897    5.7863   11.6655 N   0  3  0  0  0  0  0  0  0  0  0  0
  -11.6944    4.7459   10.9504 C   0  0  0  0  0  0  0  0  0  0  0  0
  -12.9895    4.7697   10.3244 C   0  0  0  0  0  0  0  0  0  0  0  0
  -13.8149    5.8840   10.4361 C   0  0  0  0  0  0  0  0  0  0  0  0
  -15.0511    5.9065    9.8216 C   0  0  0  0  0  0  0  0  0  0  0  0
  -15.9307    7.1331   10.0240 C   0  0  2  0  0  0  0  0  0  0  0  0
  -17.3257    6.6361   10.4762 C   0  0  0  0  0  0  0  0  0  0  0  0
  -17.3636    6.0949   11.6286 O   0  0  0  0  0  0  0  0  0  0  0  0
  -18.2806    6.7961    9.6640 O   0  0  0  0  0  0  0  0  0  0  0  0
  -15.8052    8.0659    8.8128 C   0  0  0  0  0  0  0  0  0  0  0  0
  -14.4730    8.8294    8.6954 C   0  0  0  0  0  0  0  0  0  0  0  0
  -13.8533    9.0934    9.7726 O   0  0  0  0  0  0  0  0  0  0  0  0
  -14.1220    9.1289    7.5182 O   0  0  0  0  0  0  0  0  0  0  0  0
  -15.4381    4.8165    9.0286 C   0  0  0  0  0  0  0  0  0  0  0  0
  -14.6297    3.6726    8.8883 C   0  0  0  0  0  0  0  0  0  0  0  0
  -13.4179    3.6645    9.5830 C   0  0  0  0  0  0  0  0  0  0  0  0
  -12.6058    2.5467    9.4854 O   0  0  0  0  0  0  0  0  0  0  0  0
  -15.0645    2.5248    8.0746 C   0  0  0  0  0  0  0  0  0  0  0  0
  -14.2270    1.8412    7.1682 C   0  0  0  0  0  0  0  0  0  0  0  0
  -14.6710    0.7264    6.4707 C   0  0  0  0  0  0  0  0  0  0  0  0
  -15.9789    0.2835    6.6323 C   0  0  0  0  0  0  0  0  0  0  0  0
  -16.8543    0.9390    7.5078 C   0  0  0  0  0  0  0  0  0  0  0  0
  -18.2923    0.4932    7.5930 C   0  0  0  0  0  0  0  0  0  0  0  0
  -18.8767    0.6417    8.9082 N   0  0  0  0  0  0  0  0  0  0  0  0
  -19.7096    1.6878    9.1688 C   0  0  0  0  0  0  0  0  0  0  0  0
  -20.1293    2.4700    8.3294 O   0  0  0  0  0  0  0  0  0  0  0  0
  -20.1215    1.7532   10.4578 N   0  0  0  0  0  0  0  0  0  0  0  0
  -16.3863    2.0591    8.2092 C   0  0  0  0  0  0  0  0  0  0  0  0
  -12.9366    2.2128    6.8853 O   0  0  0  0  0  0  0  0  0  0  0  0
   -6.6919    3.5920   12.8197 H   0  0  0  0  0  0  0  0  0  0  0  0
   -8.4222    2.4658   11.4800 H   0  0  0  0  0  0  0  0  0  0  0  0
   -9.3310    7.0504   13.3091 H   0  0  0  0  0  0  0  0  0  0  0  0
   -6.2214    7.9341   14.6826 H   0  0  0  0  0  0  0  0  0  0  0  0
   -5.9671    4.3810   14.6113 H   0  0  0  0  0  0  0  0  0  0  0  0
   -5.2405    5.8207   15.2333 H   0  0  0  0  0  0  0  0  0  0  0  0
  -11.6502    6.6783   11.8081 H   0  0  0  0  0  0  0  0  0  0  0  0
  -13.5242    6.7736   10.9898 H   0  0  0  0  0  0  0  0  0  0  0  0
  -15.5692    7.6841   10.9060 H   0  0  0  0  0  0  0  0  0  0  0  0
  -16.5986    8.8211    8.8553 H   0  0  0  0  0  0  0  0  0  0  0  0
  -15.9655    7.5008    7.8845 H   0  0  0  0  0  0  0  0  0  0  0  0
  -16.4026    4.8713    8.5251 H   0  0  0  0  0  0  0  0  0  0  0  0
  -11.7961    2.7225   10.0086 H   0  0  0  0  0  0  0  0  0  0  0  0
  -13.9891    0.2188    5.7971 H   0  0  0  0  0  0  0  0  0  0  0  0
  -16.3172   -0.5672    6.0496 H   0  0  0  0  0  0  0  0  0  0  0  0
  -18.3546   -0.5740    7.3564 H   0  0  0  0  0  0  0  0  0  0  0  0
  -18.8744    1.0418    6.8445 H   0  0  0  0  0  0  0  0  0  0  0  0
  -18.4290    0.1788    9.6816 H   0  0  0  0  0  0  0  0  0  0  0  0
  -20.5457    2.6523   10.6684 H   0  0  0  0  0  0  0  0  0  0  0  0
  -19.5461    1.3789   11.1937 H   0  0  0  0  0  0  0  0  0  0  0  0
  -17.0641    2.5982    8.8737 H   0  0  0  0  0  0  0  0  0  0  0  0
  -12.6758    2.8447    7.5814 H   0  0  0  0  0  0  0  0  0  0  0  0
   -7.5498    7.9632   13.5942 H   0  0  0  0  0  0  0  0  0  0  0  0
  1  2  2  0  0  0  0
  1  6  1  0  0  0  0
  1  7  1  0  0  0  0
  2  3  1  0  0  0  0
  2 40  1  0  0  0  0
  3  4  2  0  0  0  0
  3 41  1  0  0  0  0
  4  5  1  0  0  0  0
  4 10  1  0  0  0  0
  5  6  2  0  0  0  0
  5 11  1  0  0  0  0
  6 42  1  0  0  0  0
  7  8  2  0  0  0  0
  7  9  1  0  0  0  0
  8 43  1  0  0  0  0
  8 62  1  0  0  0  0
  9 44  1  0  0  0  0
  9 45  1  0  0  0  0
 10 12  1  0  0  0  0
 11 12  2  0  0  0  0
 11 46  1  0  0  0  0
 12 13  1  0  0  0  0
 13 14  2  0  0  0  0
 13 26  1  0  0  0  0
 14 15  1  0  0  0  0
 14 47  1  0  0  0  0
 15 16  1  0  0  0  0
 15 24  2  0  0  0  0
 16 17  1  0  0  0  0
 16 20  1  0  0  0  0
 16 48  1  1  0  0  0
 17 18  2  0  0  0  0
 17 19  1  0  0  0  0
 20 21  1  0  0  0  0
 20 49  1  0  0  0  0
 20 50  1  0  0  0  0
 21 22  2  0  0  0  0
 21 23  1  0  0  0  0
 24 25  1  0  0  0  0
 24 51  1  0  0  0  0
 25 26  2  0  0  0  0
 25 28  1  0  0  0  0
 26 27  1  0  0  0  0
 27 52  1  0  0  0  0
 28 29  2  0  0  0  0
 28 38  1  0  0  0  0
 29 30  1  0  0  0  0
 29 39  1  0  0  0  0
 30 31  2  0  0  0  0
 30 53  1  0  0  0  0
 31 32  1  0  0  0  0
 31 54  1  0  0  0  0
 32 33  1  0  0  0  0
 32 38  2  0  0  0  0
 33 34  1  0  0  0  0
 33 55  1  0  0  0  0
 33 56  1  0  0  0  0
 34 35  1  0  0  0  0
 34 57  1  0  0  0  0
 35 36  2  0  0  0  0
 35 37  1  0  0  0  0
 37 58  1  0  0  0  0
 37 59  1  0  0  0  0
 38 60  1  0  0  0  0
 39 61  1  0  0  0  0
M  CHG  1  11   1
M  END
$$$$
