C2R
 OpenBabel04051918323D

 33 34  0  0  1  0  0  0  0  0999 V2000
   15.5692  -11.6734   -9.3437 P   0  0  0  0  0  0  0  0  0  0  0  0
   16.3623  -12.9394   -9.0763 O   0  0  0  0  0  0  0  0  0  0  0  0
   14.4979  -11.3767   -8.3138 O   0  0  0  0  0  0  0  0  0  0  0  0
   16.4013  -10.4639   -9.7437 O   0  0  0  0  0  0  0  0  0  0  0  0
   14.6615  -13.9412  -15.0104 N   0  3  0  0  0  0  0  0  0  0  0  0
   14.5214  -14.2963  -16.3438 C   0  0  0  0  0  0  0  0  0  0  0  0
   15.5201  -15.2299  -16.5785 C   0  0  0  0  0  0  0  0  0  0  0  0
   16.2700  -15.4209  -15.4267 N   0  0  0  0  0  0  0  0  0  0  0  0
   15.7390  -14.6303  -14.5192 C   0  0  0  0  0  0  0  0  0  0  0  0
   13.5785  -13.8077  -17.1456 N   0  0  0  0  0  0  0  0  0  0  0  0
   15.7222  -15.9426  -17.9171 C   0  0  0  0  0  0  0  0  0  0  0  0
   14.9736  -15.5881  -18.8905 O   0  0  0  0  0  0  0  0  0  0  0  0
   16.6212  -16.8527  -17.9758 O   0  0  0  0  0  0  0  0  0  0  0  0
   14.7142  -12.0624  -10.6970 O   0  0  0  0  0  0  0  0  0  0  0  0
   13.0976  -14.0135  -13.0836 C   0  0  2  0  0  0  0  0  0  0  0  0
   12.1438  -14.9801  -13.5549 O   0  0  0  0  0  0  0  0  0  0  0  0
   12.4283  -12.9185  -12.2664 C   0  0  2  0  0  0  0  0  0  0  0  0
   11.0691  -12.7237  -12.7267 O   0  0  0  0  0  0  0  0  0  0  0  0
   13.9079  -11.0736  -11.3095 C   0  0  0  0  0  0  0  0  0  0  0  0
   13.2714  -11.6669  -12.5721 C   0  0  1  0  0  0  0  0  0  0  0  0
   14.2619  -12.0472  -13.5764 O   0  0  0  0  0  0  0  0  0  0  0  0
   13.6962  -13.2060  -14.2156 C   0  0  1  0  0  0  0  0  0  0  0  0
   16.0549  -14.5452  -13.4874 H   0  0  0  0  0  0  0  0  0  0  0  0
   13.6193  -14.1093  -18.1331 H   0  0  0  0  0  0  0  0  0  0  0  0
   12.9192  -13.0721  -16.9188 H   0  0  0  0  0  0  0  0  0  0  0  0
   13.8743  -14.5091  -12.4883 H   0  0  0  0  0  0  0  0  0  0  0  0
   11.7666  -15.4120  -12.7797 H   0  0  0  0  0  0  0  0  0  0  0  0
   12.3703  -13.1540  -11.2003 H   0  0  0  0  0  0  0  0  0  0  0  0
   10.6500  -13.6004  -12.6760 H   0  0  0  0  0  0  0  0  0  0  0  0
   14.5022  -10.1968  -11.5825 H   0  0  0  0  0  0  0  0  0  0  0  0
   13.1061  -10.7692  -10.6260 H   0  0  0  0  0  0  0  0  0  0  0  0
   12.6443  -10.9102  -13.0578 H   0  0  0  0  0  0  0  0  0  0  0  0
   12.9015  -12.8395  -14.8782 H   0  0  0  0  0  0  0  0  0  0  0  0
  1  2  2  0  0  0  0
  1  3  1  0  0  0  0
  1  4  1  0  0  0  0
  1 14  1  0  0  0  0
  5  6  1  0  0  0  0
  5  9  2  0  0  0  0
  5 22  1  0  0  0  0
  6  7  2  0  0  0  0
  6 10  1  0  0  0  0
  7  8  1  0  0  0  0
  7 11  1  0  0  0  0
  8  9  1  0  0  0  0
  9 23  1  0  0  0  0
 10 24  1  0  0  0  0
 10 25  1  0  0  0  0
 11 12  2  0  0  0  0
 11 13  1  0  0  0  0
 14 19  1  0  0  0  0
 15 16  1  0  0  0  0
 15 17  1  0  0  0  0
 15 22  1  0  0  0  0
 15 26  1  1  0  0  0
 16 27  1  0  0  0  0
 17 18  1  0  0  0  0
 17 20  1  0  0  0  0
 17 28  1  1  0  0  0
 18 29  1  0  0  0  0
 19 20  1  0  0  0  0
 19 30  1  0  0  0  0
 19 31  1  0  0  0  0
 20 21  1  0  0  0  0
 20 32  1  6  0  0  0
 21 22  1  0  0  0  0
 22 33  1  6  0  0  0
M  CHG  1   5   1
M  END
$$$$
