C4H
 OpenBabel04051917403D

 54 55  0  0  0  0  0  0  0  0999 V2000
   29.6020   45.8150   33.5208 C   0  0  0  0  0  0  0  0  0  0  0  0
   28.8531   44.7399   32.9827 C   0  0  0  0  0  0  0  0  0  0  0  0
   30.1691   46.9166   32.7523 C   0  0  0  0  0  0  0  0  0  0  0  0
   30.0882   47.1024   31.3495 N   0  0  0  0  0  0  0  0  0  0  0  0
   28.8927   47.8358   30.9210 C   0  0  0  0  0  0  0  0  0  0  0  0
   30.4124   45.9914   30.4681 C   0  0  0  0  0  0  0  0  0  0  0  0
   30.8705   47.9289   33.4276 C   0  0  0  0  0  0  0  0  0  0  0  0
   31.0535   47.8968   34.8096 C   0  0  0  0  0  0  0  0  0  0  0  0
   30.5028   46.8434   35.5411 C   0  0  0  0  0  0  0  0  0  0  0  0
   29.7813   45.7933   34.9549 C   0  0  0  0  0  0  0  0  0  0  0  0
   29.2098   44.7191   35.7188 C   0  0  0  0  0  0  0  0  0  0  0  0
   28.5025   43.6752   35.1093 C   0  0  0  0  0  0  0  0  0  0  0  0
   28.3254   43.6904   33.7354 C   0  0  0  0  0  0  0  0  0  0  0  0
   29.2813   44.6400   37.5064 S   0  0  0  0  0  0  0  0  0  0  0  0
   30.8799   44.4403   37.9256 N   0  0  0  0  0  0  0  0  0  0  0  0
   31.8940   43.7876   37.1166 C   0  0  0  0  0  0  0  0  0  0  0  0
   32.5316   42.5944   37.8333 C   0  0  0  0  0  0  0  0  0  0  0  0
   33.0457   42.9311   39.2467 C   0  0  0  0  0  0  0  0  0  0  0  0
   33.7491   41.7584   39.9401 C   0  0  0  0  0  0  0  0  0  0  0  0
   33.8625   41.9503   41.3923 N   0  0  0  0  0  0  0  0  0  0  0  0
   33.1204   41.1791   42.2683 C   0  0  0  0  0  0  0  0  0  0  0  0
   32.3888   40.2770   41.8862 O   0  0  0  0  0  0  0  0  0  0  0  0
   33.3471   41.4336   43.7653 C   0  0  0  0  0  0  0  0  0  0  0  0
   32.1971   40.9197   44.6371 C   0  0  0  0  0  0  0  0  0  0  0  0
   30.7959   42.0883   44.6662 S   0  0  0  0  0  0  0  0  0  0  0  0
   28.5971   43.4382   37.9364 O   0  0  0  0  0  0  0  0  0  0  0  0
   28.8917   45.9251   38.0404 O   0  0  0  0  0  0  0  0  0  0  0  0
   28.6177   44.6956   31.9216 H   0  0  0  0  0  0  0  0  0  0  0  0
   28.9082   47.9609   29.8270 H   0  0  0  0  0  0  0  0  0  0  0  0
   28.8477   48.8430   31.3471 H   0  0  0  0  0  0  0  0  0  0  0  0
   27.9913   47.2738   31.1711 H   0  0  0  0  0  0  0  0  0  0  0  0
   31.3438   45.4990   30.7545 H   0  0  0  0  0  0  0  0  0  0  0  0
   30.5282   46.3550   29.4391 H   0  0  0  0  0  0  0  0  0  0  0  0
   29.5973   45.2726   30.4163 H   0  0  0  0  0  0  0  0  0  0  0  0
   31.3128   48.7548   32.8693 H   0  0  0  0  0  0  0  0  0  0  0  0
   31.6043   48.6827   35.3059 H   0  0  0  0  0  0  0  0  0  0  0  0
   30.6779   46.8850   36.6161 H   0  0  0  0  0  0  0  0  0  0  0  0
   28.0750   42.8716   35.6846 H   0  0  0  0  0  0  0  0  0  0  0  0
   27.7686   42.8865   33.2523 H   0  0  0  0  0  0  0  0  0  0  0  0
   31.1151   44.8076   38.8455 H   0  0  0  0  0  0  0  0  0  0  0  0
   32.6643   44.5411   36.9080 H   0  0  0  0  0  0  0  0  0  0  0  0
   31.4990   43.4684   36.1484 H   0  0  0  0  0  0  0  0  0  0  0  0
   33.3589   42.2292   37.2099 H   0  0  0  0  0  0  0  0  0  0  0  0
   31.7977   41.7812   37.8897 H   0  0  0  0  0  0  0  0  0  0  0  0
   32.1993   43.2386   39.8680 H   0  0  0  0  0  0  0  0  0  0  0  0
   33.7307   43.7858   39.1886 H   0  0  0  0  0  0  0  0  0  0  0  0
   34.7664   41.6463   39.5428 H   0  0  0  0  0  0  0  0  0  0  0  0
   33.2119   40.8286   39.7326 H   0  0  0  0  0  0  0  0  0  0  0  0
   34.4943   42.6441   41.7503 H   0  0  0  0  0  0  0  0  0  0  0  0
   33.5448   42.4952   43.9516 H   0  0  0  0  0  0  0  0  0  0  0  0
   34.2529   40.8815   44.0470 H   0  0  0  0  0  0  0  0  0  0  0  0
   32.5366   40.8053   45.6740 H   0  0  0  0  0  0  0  0  0  0  0  0
   31.8331   39.9392   44.3116 H   0  0  0  0  0  0  0  0  0  0  0  0
   29.9911   41.3740   45.4708 H   0  0  0  0  0  0  0  0  0  0  0  0
  1  2  2  0  0  0  0
  1  3  1  0  0  0  0
  1 10  1  0  0  0  0
  2 13  1  0  0  0  0
  2 28  1  0  0  0  0
  3  4  1  0  0  0  0
  3  7  2  0  0  0  0
  4  5  1  0  0  0  0
  4  6  1  0  0  0  0
  5 29  1  0  0  0  0
  5 30  1  0  0  0  0
  5 31  1  0  0  0  0
  6 32  1  0  0  0  0
  6 33  1  0  0  0  0
  6 34  1  0  0  0  0
  7  8  1  0  0  0  0
  7 35  1  0  0  0  0
  8  9  2  0  0  0  0
  8 36  1  0  0  0  0
  9 10  1  0  0  0  0
  9 37  1  0  0  0  0
 10 11  2  0  0  0  0
 11 12  1  0  0  0  0
 11 14  1  0  0  0  0
 12 13  2  0  0  0  0
 12 38  1  0  0  0  0
 13 39  1  0  0  0  0
 14 15  1  0  0  0  0
 14 26  2  0  0  0  0
 14 27  2  0  0  0  0
 15 16  1  0  0  0  0
 15 40  1  0  0  0  0
 16 17  1  0  0  0  0
 16 41  1  0  0  0  0
 16 42  1  0  0  0  0
 17 18  1  0  0  0  0
 17 43  1  0  0  0  0
 17 44  1  0  0  0  0
 18 19  1  0  0  0  0
 18 45  1  0  0  0  0
 18 46  1  0  0  0  0
 19 20  1  0  0  0  0
 19 47  1  0  0  0  0
 19 48  1  0  0  0  0
 20 21  1  0  0  0  0
 20 49  1  0  0  0  0
 21 22  2  0  0  0  0
 21 23  1  0  0  0  0
 23 24  1  0  0  0  0
 23 50  1  0  0  0  0
 23 51  1  0  0  0  0
 24 25  1  0  0  0  0
 24 52  1  0  0  0  0
 24 53  1  0  0  0  0
 25 54  1  0  0  0  0
M  END
$$$$
