CDK
 OpenBabel04051920313D

 50 52  0  0  0  0  0  0  0  0999 V2000
   29.5856   31.1139   26.5123 C   0  0  0  0  0  0  0  0  0  0  0  0
   28.6886   30.1518   25.7964 C   0  0  0  0  0  0  0  0  0  0  0  0
   29.2000   29.3626   24.7748 N   0  3  0  0  0  0  0  0  0  0  0  0
   30.5578   29.4370   24.2786 C   0  0  0  0  0  0  0  0  0  0  0  0
   28.3015   28.4835   24.1882 C   0  0  0  0  0  0  0  0  0  0  0  0
   28.5055   27.7041   23.2692 O   0  0  0  0  0  0  0  0  0  0  0  0
   26.7399   28.6800   24.9894 S   0  0  0  0  0  0  0  0  0  0  0  0
   27.3771   29.9382   26.0129 C   0  0  0  0  0  0  0  0  0  0  0  0
   26.4949   30.6476   26.9482 C   0  0  0  0  0  0  0  0  0  0  0  0
   25.5675   29.9446   27.5993 N   0  0  0  0  0  0  0  0  0  0  0  0
   26.6478   32.0048   27.1552 C   0  0  0  0  0  0  0  0  0  0  0  0
   25.8736   32.5725   28.1324 C   0  0  0  0  0  0  0  0  0  0  0  0
   24.9600   31.8805   28.8191 N   0  0  0  0  0  0  0  0  0  0  0  0
   24.8078   30.5946   28.4990 C   0  0  0  0  0  0  0  0  0  0  0  0
   23.7984   29.9506   29.1823 N   0  0  0  0  0  0  0  0  0  0  0  0
   23.0665   28.8060   28.8839 C   0  0  0  0  0  0  0  0  0  0  0  0
   22.1481   28.3894   29.8500 C   0  0  0  0  0  0  0  0  0  0  0  0
   21.4046   27.2379   29.6622 C   0  0  0  0  0  0  0  0  0  0  0  0
   23.2328   28.0200   27.7285 C   0  0  0  0  0  0  0  0  0  0  0  0
   22.4790   26.8706   27.5203 C   0  0  0  0  0  0  0  0  0  0  0  0
   21.5640   26.4902   28.4916 C   0  0  0  0  0  0  0  0  0  0  0  0
   20.4555   25.1381   28.2943 S   0  0  0  0  0  0  0  0  0  0  0  0
   19.4937   25.5272   27.2870 O   0  0  0  0  0  0  0  0  0  0  0  0
   20.0501   24.7508   29.6272 O   0  0  0  0  0  0  0  0  0  0  0  0
   21.3449   23.8693   27.6743 N   0  0  0  0  0  0  0  0  0  0  0  0
   20.6271   22.5871   27.6028 C   0  0  0  0  0  0  0  0  0  0  0  0
   20.7837   21.7550   28.8822 C   0  0  0  0  0  0  0  0  0  0  0  0
   19.6096   21.8774   29.6898 O   0  0  0  0  0  0  0  0  0  0  0  0
   19.2593   20.6591   30.3261 C   0  0  0  0  0  0  0  0  0  0  0  0
   29.1205   31.5912   27.3765 H   0  0  0  0  0  0  0  0  0  0  0  0
   29.9035   31.9058   25.8274 H   0  0  0  0  0  0  0  0  0  0  0  0
   30.4637   30.6002   26.9130 H   0  0  0  0  0  0  0  0  0  0  0  0
   31.1568   30.1804   24.8080 H   0  0  0  0  0  0  0  0  0  0  0  0
   30.5337   29.7004   23.2170 H   0  0  0  0  0  0  0  0  0  0  0  0
   31.0259   28.4559   24.3902 H   0  0  0  0  0  0  0  0  0  0  0  0
   27.3647   32.6042   26.6158 H   0  0  0  0  0  0  0  0  0  0  0  0
   25.9777   33.6137   28.3980 H   0  0  0  0  0  0  0  0  0  0  0  0
   23.3870   30.5934   29.8430 H   0  0  0  0  0  0  0  0  0  0  0  0
   21.9928   28.9721   30.7549 H   0  0  0  0  0  0  0  0  0  0  0  0
   20.6773   26.9528   30.4177 H   0  0  0  0  0  0  0  0  0  0  0  0
   23.9377   28.3259   26.9490 H   0  0  0  0  0  0  0  0  0  0  0  0
   22.6031   26.3061   26.5909 H   0  0  0  0  0  0  0  0  0  0  0  0
   22.3504   23.9241   27.5409 H   0  0  0  0  0  0  0  0  0  0  0  0
   21.0225   22.0346   26.7462 H   0  0  0  0  0  0  0  0  0  0  0  0
   19.5644   22.7754   27.4018 H   0  0  0  0  0  0  0  0  0  0  0  0
   21.6489   22.0701   29.4764 H   0  0  0  0  0  0  0  0  0  0  0  0
   20.9223   20.7081   28.5941 H   0  0  0  0  0  0  0  0  0  0  0  0
   18.4065   20.8354   30.9876 H   0  0  0  0  0  0  0  0  0  0  0  0
   20.0944   20.2724   30.9175 H   0  0  0  0  0  0  0  0  0  0  0  0
   18.9616   19.9288   29.5677 H   0  0  0  0  0  0  0  0  0  0  0  0
  1  2  1  0  0  0  0
  1 30  1  0  0  0  0
  1 31  1  0  0  0  0
  1 32  1  0  0  0  0
  2  3  1  0  0  0  0
  2  8  2  0  0  0  0
  3  4  1  0  0  0  0
  3  5  1  0  0  0  0
  4 33  1  0  0  0  0
  4 34  1  0  0  0  0
  4 35  1  0  0  0  0
  5  6  2  0  0  0  0
  5  7  1  0  0  0  0
  7  8  1  0  0  0  0
  8  9  1  0  0  0  0
  9 10  2  0  0  0  0
  9 11  1  0  0  0  0
 10 14  1  0  0  0  0
 11 12  2  0  0  0  0
 11 36  1  0  0  0  0
 12 13  1  0  0  0  0
 12 37  1  0  0  0  0
 13 14  2  0  0  0  0
 14 15  1  0  0  0  0
 15 16  1  0  0  0  0
 15 38  1  0  0  0  0
 16 17  2  0  0  0  0
 16 19  1  0  0  0  0
 17 18  1  0  0  0  0
 17 39  1  0  0  0  0
 18 21  2  0  0  0  0
 18 40  1  0  0  0  0
 19 20  2  0  0  0  0
 19 41  1  0  0  0  0
 20 21  1  0  0  0  0
 20 42  1  0  0  0  0
 21 22  1  0  0  0  0
 22 23  2  0  0  0  0
 22 24  2  0  0  0  0
 22 25  1  0  0  0  0
 25 26  1  0  0  0  0
 25 43  1  0  0  0  0
 26 27  1  0  0  0  0
 26 44  1  0  0  0  0
 26 45  1  0  0  0  0
 27 28  1  0  0  0  0
 27 46  1  0  0  0  0
 27 47  1  0  0  0  0
 28 29  1  0  0  0  0
 29 48  1  0  0  0  0
 29 49  1  0  0  0  0
 29 50  1  0  0  0  0
M  CHG  1   3   1
M  END
$$$$
