CHT
 OpenBabel04051918083D

 21 20  0  0  0  0  0  0  0  0999 V2000
   25.5061   20.8422   14.1908 C   0  0  0  0  0  0  0  0  0  0  0  0
   26.8351   20.3308   14.7658 C   0  0  0  0  0  0  0  0  0  0  0  0
   26.9835   17.9182   14.1943 C   0  0  0  0  0  0  0  0  0  0  0  0
   27.8126   18.7212   16.3661 C   0  0  0  0  0  0  0  0  0  0  0  0
   25.4108   18.6324   15.9579 C   0  0  0  0  0  0  0  0  0  0  0  0
   24.9847   19.9073   13.2604 O   0  0  0  0  0  0  0  0  0  0  0  0
   26.7470   18.9072   15.3164 N   0  3  0  0  0  0  0  0  0  0  0  0
   25.6857   21.7837   13.6906 H   0  0  0  0  0  0  0  0  0  0  0  0
   24.7899   20.9840   15.0034 H   0  0  0  0  0  0  0  0  0  0  0  0
   27.1466   20.9777   15.5962 H   0  0  0  0  0  0  0  0  0  0  0  0
   27.6136   20.3248   13.9973 H   0  0  0  0  0  0  0  0  0  0  0  0
   26.9097   16.9114   14.6159 H   0  0  0  0  0  0  0  0  0  0  0  0
   27.9864   18.0947   13.7912 H   0  0  0  0  0  0  0  0  0  0  0  0
   26.2294   18.0597   13.4248 H   0  0  0  0  0  0  0  0  0  0  0  0
   27.6199   19.4463   17.1631 H   0  0  0  0  0  0  0  0  0  0  0  0
   28.7823   18.8970   15.8962 H   0  0  0  0  0  0  0  0  0  0  0  0
   27.7270   17.6977   16.7442 H   0  0  0  0  0  0  0  0  0  0  0  0
   24.6229   18.7393   15.2146 H   0  0  0  0  0  0  0  0  0  0  0  0
   25.2816   19.3502   16.7748 H   0  0  0  0  0  0  0  0  0  0  0  0
   25.4197   17.6052   16.3288 H   0  0  0  0  0  0  0  0  0  0  0  0
   24.1177   20.2695   12.9167 H   0  0  0  0  0  0  0  0  0  0  0  0
  1  2  1  0  0  0  0
  1  6  1  0  0  0  0
  1  8  1  0  0  0  0
  1  9  1  0  0  0  0
  2  7  1  0  0  0  0
  2 10  1  0  0  0  0
  2 11  1  0  0  0  0
  3  7  1  0  0  0  0
  3 12  1  0  0  0  0
  3 13  1  0  0  0  0
  3 14  1  0  0  0  0
  4  7  1  0  0  0  0
  4 15  1  0  0  0  0
  4 16  1  0  0  0  0
  4 17  1  0  0  0  0
  5  7  1  0  0  0  0
  5 18  1  0  0  0  0
  5 19  1  0  0  0  0
  5 20  1  0  0  0  0
  6 21  1  0  0  0  0
M  CHG  1   7   1
M  END
$$$$
