CTS
 OpenBabel04051918283D

 29 30  0  0  1  0  0  0  0  0999 V2000
   22.1761   43.9159   69.9690 C   0  0  0  0  0  0  0  0  0  0  0  0
   21.7924   42.9924   71.1347 C   0  0  1  0  0  0  0  0  0  0  0  0
   23.0343   42.2616   71.6985 C   0  0  2  0  0  0  0  0  0  0  0  0
   23.7245   41.4244   70.5916 C   0  0  1  0  0  0  0  0  0  0  0  0
   24.1277   42.3532   69.4448 C   0  0  1  0  0  0  0  0  0  0  0  0
   24.5032   41.6605   68.1269 C   0  0  1  0  0  0  0  0  0  0  0  0
   21.1276   43.7423   72.1413 O   0  0  0  0  0  0  0  0  0  0  0  0
   22.6046   41.3956   72.7520 O   0  0  0  0  0  0  0  0  0  0  0  0
   24.8972   40.7654   71.0684 O   0  0  0  0  0  0  0  0  0  0  0  0
   23.5218   40.6526   67.8399 O   0  0  0  0  0  0  0  0  0  0  0  0
   22.9238   43.1183   68.9614 N   0  3  2  0  0  0  0  0  0  0  0  0
   24.4278   42.8153   67.1299 C   0  0  0  0  0  0  0  0  0  0  0  0
   23.2733   43.7011   67.6302 C   0  0  0  0  0  0  0  0  0  0  0  0
   22.7914   44.7714   70.2903 H   0  0  0  0  0  0  0  0  0  0  0  0
   21.2754   44.2870   69.4796 H   0  0  0  0  0  0  0  0  0  0  0  0
   21.0769   42.2257   70.7865 H   0  0  0  0  0  0  0  0  0  0  0  0
   23.7415   42.9775   72.1404 H   0  0  0  0  0  0  0  0  0  0  0  0
   23.0211   40.6487   70.2641 H   0  0  0  0  0  0  0  0  0  0  0  0
   24.9059   43.0689   69.7474 H   0  0  0  0  0  0  0  0  0  0  0  0
   25.4842   41.1796   68.1509 H   0  0  0  0  0  0  0  0  0  0  0  0
   20.2563   44.0199   71.8263 H   0  0  0  0  0  0  0  0  0  0  0  0
   22.2400   41.9663   73.4569 H   0  0  0  0  0  0  0  0  0  0  0  0
   25.1212   40.0471   70.4423 H   0  0  0  0  0  0  0  0  0  0  0  0
   22.7709   40.9834   67.3179 H   0  0  0  0  0  0  0  0  0  0  0  0
   24.2469   42.4852   66.1006 H   0  0  0  0  0  0  0  0  0  0  0  0
   25.3590   43.3866   67.1470 H   0  0  0  0  0  0  0  0  0  0  0  0
   23.5684   44.7524   67.7509 H   0  0  0  0  0  0  0  0  0  0  0  0
   22.3878   43.6121   67.0004 H   0  0  0  0  0  0  0  0  0  0  0  0
   22.2452   42.3673   68.7302 H   0  0  0  0  0  0  0  0  0  0  0  0
  1  2  1  0  0  0  0
  1 11  1  0  0  0  0
  1 14  1  0  0  0  0
  1 15  1  0  0  0  0
  2  3  1  0  0  0  0
  2  7  1  0  0  0  0
  2 16  1  6  0  0  0
  3  4  1  0  0  0  0
  3  8  1  0  0  0  0
  3 17  1  1  0  0  0
  4  5  1  0  0  0  0
  4  9  1  0  0  0  0
  4 18  1  6  0  0  0
  5  6  1  0  0  0  0
  5 11  1  0  0  0  0
  5 19  1  1  0  0  0
  6 10  1  0  0  0  0
  6 12  1  0  0  0  0
  6 20  1  1  0  0  0
  7 21  1  0  0  0  0
  8 22  1  0  0  0  0
  9 23  1  0  0  0  0
 10 24  1  0  0  0  0
 11 13  1  0  0  0  0
 11 29  1  6  0  0  0
 12 13  1  0  0  0  0
 12 25  1  0  0  0  0
 12 26  1  0  0  0  0
 13 27  1  0  0  0  0
 13 28  1  0  0  0  0
M  CHG  1  11   1
M  END
$$$$
