CTS
 OpenBabel04051917323D

 29 30  0  0  1  0  0  0  0  0999 V2000
   -0.4715   10.8240   10.6503 C   0  0  0  0  0  0  0  0  0  0  0  0
    0.3364   11.6891    9.6860 C   0  0  1  0  0  0  0  0  0  0  0  0
   -0.2714   11.9186    8.2978 C   0  0  2  0  0  0  0  0  0  0  0  0
   -1.0804   10.6911    7.8744 C   0  0  1  0  0  0  0  0  0  0  0  0
   -2.2974   10.6204    8.7855 C   0  0  1  0  0  0  0  0  0  0  0  0
   -3.1076    9.3361    8.7282 C   0  0  1  0  0  0  0  0  0  0  0  0
    0.5638   12.9512   10.3133 O   0  0  0  0  0  0  0  0  0  0  0  0
    0.8103   12.2047    7.4397 O   0  0  0  0  0  0  0  0  0  0  0  0
   -1.5029   10.8379    6.5281 O   0  0  0  0  0  0  0  0  0  0  0  0
   -2.2732    8.1900    8.8180 O   0  0  0  0  0  0  0  0  0  0  0  0
   -1.9158   10.7112   10.2286 N   0  3  1  0  0  0  0  0  0  0  0  0
   -3.8665    9.3680   10.0418 C   0  0  0  0  0  0  0  0  0  0  0  0
   -2.8387    9.8438   11.0567 C   0  0  0  0  0  0  0  0  0  0  0  0
   -0.5490   11.3365   11.6120 H   0  0  0  0  0  0  0  0  0  0  0  0
   -0.0094    9.8451   10.7674 H   0  0  0  0  0  0  0  0  0  0  0  0
    1.3135   11.2086    9.5589 H   0  0  0  0  0  0  0  0  0  0  0  0
   -0.9353   12.7953    8.3127 H   0  0  0  0  0  0  0  0  0  0  0  0
   -0.4694    9.7898    7.9815 H   0  0  0  0  0  0  0  0  0  0  0  0
   -2.9562   11.4971    8.6040 H   0  0  0  0  0  0  0  0  0  0  0  0
   -3.7565    9.2841    7.8481 H   0  0  0  0  0  0  0  0  0  0  0  0
   -0.2831   13.4413   10.3850 H   0  0  0  0  0  0  0  0  0  0  0  0
    0.4632   12.3884    6.5395 H   0  0  0  0  0  0  0  0  0  0  0  0
   -2.0617   10.0609    6.2781 H   0  0  0  0  0  0  0  0  0  0  0  0
   -1.6319    8.1642    8.0786 H   0  0  0  0  0  0  0  0  0  0  0  0
   -4.2169    8.3754   10.3259 H   0  0  0  0  0  0  0  0  0  0  0  0
   -4.7071   10.0674   10.0034 H   0  0  0  0  0  0  0  0  0  0  0  0
   -3.2724   10.5379   11.7848 H   0  0  0  0  0  0  0  0  0  0  0  0
   -2.3187    9.0334   11.5691 H   0  0  0  0  0  0  0  0  0  0  0  0
   -2.2334   11.6074   10.4679 H   0  0  0  0  0  0  0  0  0  0  0  0
  1  2  1  0  0  0  0
  1 11  1  0  0  0  0
  1 14  1  0  0  0  0
  1 15  1  0  0  0  0
  2  3  1  0  0  0  0
  2  7  1  0  0  0  0
  2 16  1  6  0  0  0
  3  4  1  0  0  0  0
  3  8  1  0  0  0  0
  3 17  1  1  0  0  0
  4  5  1  0  0  0  0
  4  9  1  0  0  0  0
  4 18  1  1  0  0  0
  5  6  1  0  0  0  0
  5 11  1  0  0  0  0
  5 19  1  6  0  0  0
  6 10  1  0  0  0  0
  6 12  1  0  0  0  0
  6 20  1  6  0  0  0
  7 21  1  0  0  0  0
  8 22  1  0  0  0  0
  9 23  1  0  0  0  0
 10 24  1  0  0  0  0
 11 13  1  0  0  0  0
 11 29  1  1  0  0  0
 12 13  1  0  0  0  0
 12 25  1  0  0  0  0
 12 26  1  0  0  0  0
 13 27  1  0  0  0  0
 13 28  1  0  0  0  0
M  CHG  1  11   1
M  END
$$$$
