DAN
 OpenBabel04051920393D

 36 36  0  0  1  0  0  0  0  0999 V2000
   14.7335  -20.0245   45.0708 C   0  0  0  0  0  0  0  0  0  0  0  0
   14.8609  -19.3609   43.6127 C   0  0  0  0  0  0  0  0  0  0  0  0
   13.8133  -18.9873   42.8725 C   0  0  0  0  0  0  0  0  0  0  0  0
   13.9975  -18.3168   41.5485 C   0  0  1  0  0  0  0  0  0  0  0  0
   15.3502  -18.7121   40.9102 C   0  0  2  0  0  0  0  0  0  0  0  0
   16.4334  -18.4659   41.9815 C   0  0  2  0  0  0  0  0  0  0  0  0
   17.8597  -18.8643   41.5339 C   0  0  1  0  0  0  0  0  0  0  0  0
   18.9093  -18.7327   42.6556 C   0  0  1  0  0  0  0  0  0  0  0  0
   20.2877  -19.1612   42.1283 C   0  0  0  0  0  0  0  0  0  0  0  0
   16.2275  -18.4316   38.5959 C   0  0  0  0  0  0  0  0  0  0  0  0
   16.3511  -17.4691   37.4492 C   0  0  0  0  0  0  0  0  0  0  0  0
   15.5528  -17.9195   39.6790 N   0  0  0  0  0  0  0  0  0  0  0  0
   13.5411  -20.2129   45.4680 O   0  0  0  0  0  0  0  0  0  0  0  0
   15.8278  -20.2771   45.6803 O   0  0  0  0  0  0  0  0  0  0  0  0
   12.9107  -18.5892   40.6709 O   0  0  0  0  0  0  0  0  0  0  0  0
   16.1685  -19.1954   43.1911 O   0  0  0  0  0  0  0  0  0  0  0  0
   17.8988  -20.2097   41.0483 O   0  0  0  0  0  0  0  0  0  0  0  0
   18.9862  -17.3671   43.0905 O   0  0  0  0  0  0  0  0  0  0  0  0
   21.2890  -19.0563   43.1435 O   0  0  0  0  0  0  0  0  0  0  0  0
   16.6767  -19.5658   38.5244 O   0  0  0  0  0  0  0  0  0  0  0  0
   12.7994  -19.1543   43.2414 H   0  0  0  0  0  0  0  0  0  0  0  0
   13.9871  -17.2263   41.7093 H   0  0  0  0  0  0  0  0  0  0  0  0
   15.3164  -19.7720   40.6416 H   0  0  0  0  0  0  0  0  0  0  0  0
   16.4473  -17.3940   42.2304 H   0  0  0  0  0  0  0  0  0  0  0  0
   18.1558  -18.1992   40.7140 H   0  0  0  0  0  0  0  0  0  0  0  0
   18.6520  -19.3746   43.5091 H   0  0  0  0  0  0  0  0  0  0  0  0
   20.5925  -18.5270   41.2890 H   0  0  0  0  0  0  0  0  0  0  0  0
   20.2746  -20.2013   41.7914 H   0  0  0  0  0  0  0  0  0  0  0  0
   16.8729  -17.9642   36.6218 H   0  0  0  0  0  0  0  0  0  0  0  0
   16.9248  -16.5880   37.7508 H   0  0  0  0  0  0  0  0  0  0  0  0
   15.3585  -17.1674   37.1031 H   0  0  0  0  0  0  0  0  0  0  0  0
   15.2746  -16.9489   39.6746 H   0  0  0  0  0  0  0  0  0  0  0  0
   13.0656  -18.0748   39.8592 H   0  0  0  0  0  0  0  0  0  0  0  0
   17.6142  -20.7834   41.7853 H   0  0  0  0  0  0  0  0  0  0  0  0
   19.5618  -17.3604   43.8746 H   0  0  0  0  0  0  0  0  0  0  0  0
   21.3329  -18.1259   43.4127 H   0  0  0  0  0  0  0  0  0  0  0  0
  1  2  1  0  0  0  0
  1 13  2  0  0  0  0
  1 14  1  0  0  0  0
  2  3  2  0  0  0  0
  2 16  1  0  0  0  0
  3  4  1  0  0  0  0
  3 21  1  0  0  0  0
  4  5  1  0  0  0  0
  4 15  1  0  0  0  0
  4 22  1  1  0  0  0
  5  6  1  0  0  0  0
  5 12  1  0  0  0  0
  5 23  1  6  0  0  0
  6  7  1  0  0  0  0
  6 16  1  0  0  0  0
  6 24  1  1  0  0  0
  7  8  1  0  0  0  0
  7 17  1  0  0  0  0
  7 25  1  6  0  0  0
  8  9  1  0  0  0  0
  8 18  1  0  0  0  0
  8 26  1  1  0  0  0
  9 19  1  0  0  0  0
  9 27  1  0  0  0  0
  9 28  1  0  0  0  0
 10 11  1  0  0  0  0
 10 12  1  0  0  0  0
 10 20  2  0  0  0  0
 11 29  1  0  0  0  0
 11 30  1  0  0  0  0
 11 31  1  0  0  0  0
 12 32  1  0  0  0  0
 15 33  1  0  0  0  0
 17 34  1  0  0  0  0
 18 35  1  0  0  0  0
 19 36  1  0  0  0  0
M  END
$$$$
