DAN
 OpenBabel04051919263D

 36 36  0  0  1  0  0  0  0  0999 V2000
   43.1645   51.9244   45.6235 C   0  0  0  0  0  0  0  0  0  0  0  0
   42.9265   51.5133   47.1084 C   0  0  0  0  0  0  0  0  0  0  0  0
   41.7011   51.1228   47.5366 C   0  0  0  0  0  0  0  0  0  0  0  0
   41.5343   50.4927   48.8684 C   0  0  1  0  0  0  0  0  0  0  0  0
   42.6639   50.9184   49.8097 C   0  0  2  0  0  0  0  0  0  0  0  0
   43.9723   50.6360   49.0891 C   0  0  2  0  0  0  0  0  0  0  0  0
   45.2082   51.0223   49.9008 C   0  0  1  0  0  0  0  0  0  0  0  0
   46.4815   50.7675   49.0696 C   0  0  1  0  0  0  0  0  0  0  0  0
   47.7314   51.1733   49.8587 C   0  0  0  0  0  0  0  0  0  0  0  0
   42.8009   50.7586   52.2744 C   0  0  0  0  0  0  0  0  0  0  0  0
   42.3999   49.9381   53.4652 C   0  0  0  0  0  0  0  0  0  0  0  0
   42.4784   50.1935   51.0895 N   0  0  0  0  0  0  0  0  0  0  0  0
   42.1301   52.2249   44.9535 O   0  0  0  0  0  0  0  0  0  0  0  0
   44.3770   51.8235   45.2485 O   0  0  0  0  0  0  0  0  0  0  0  0
   40.2720   50.8127   49.4589 O   0  0  0  0  0  0  0  0  0  0  0  0
   44.0512   51.4383   47.9013 O   0  0  0  0  0  0  0  0  0  0  0  0
   45.1262   52.4060   50.2674 O   0  0  0  0  0  0  0  0  0  0  0  0
   46.5481   49.3690   48.7331 O   0  0  0  0  0  0  0  0  0  0  0  0
   47.9076   50.3807   51.0334 O   0  0  0  0  0  0  0  0  0  0  0  0
   43.3362   51.8580   52.3971 O   0  0  0  0  0  0  0  0  0  0  0  0
   40.8589   51.1866   46.8546 H   0  0  0  0  0  0  0  0  0  0  0  0
   41.5541   49.4002   48.7444 H   0  0  0  0  0  0  0  0  0  0  0  0
   42.5771   51.9962   50.0055 H   0  0  0  0  0  0  0  0  0  0  0  0
   44.0448   49.5778   48.8049 H   0  0  0  0  0  0  0  0  0  0  0  0
   45.2491   50.4178   50.8134 H   0  0  0  0  0  0  0  0  0  0  0  0
   46.4488   51.3622   48.1472 H   0  0  0  0  0  0  0  0  0  0  0  0
   47.6691   52.2221   50.1657 H   0  0  0  0  0  0  0  0  0  0  0  0
   48.6305   51.0502   49.2433 H   0  0  0  0  0  0  0  0  0  0  0  0
   42.6469   50.4905   54.3757 H   0  0  0  0  0  0  0  0  0  0  0  0
   42.9619   49.0008   53.4628 H   0  0  0  0  0  0  0  0  0  0  0  0
   41.3254   49.7422   53.4582 H   0  0  0  0  0  0  0  0  0  0  0  0
   42.1968   49.2296   51.0298 H   0  0  0  0  0  0  0  0  0  0  0  0
   40.2746   50.4040   50.3433 H   0  0  0  0  0  0  0  0  0  0  0  0
   44.9928   52.9079   49.4408 H   0  0  0  0  0  0  0  0  0  0  0  0
   47.3095   49.2334   48.1425 H   0  0  0  0  0  0  0  0  0  0  0  0
   47.9457   49.4516   50.7472 H   0  0  0  0  0  0  0  0  0  0  0  0
  1 14  2  0  0  0  0
  1 13  1  0  0  0  0
  1  2  1  0  0  0  0
  2 16  1  0  0  0  0
  2  3  2  0  0  0  0
  3  4  1  0  0  0  0
  3 21  1  0  0  0  0
  4 15  1  0  0  0  0
  4  5  1  0  0  0  0
  4 22  1  6  0  0  0
  5 12  1  0  0  0  0
  5  6  1  0  0  0  0
  5 23  1  1  0  0  0
  6 16  1  0  0  0  0
  6  7  1  0  0  0  0
  6 24  1  6  0  0  0
  7 17  1  0  0  0  0
  7  8  1  0  0  0  0
  7 25  1  1  0  0  0
  8 18  1  0  0  0  0
  8  9  1  0  0  0  0
  8 26  1  6  0  0  0
  9 19  1  0  0  0  0
  9 27  1  0  0  0  0
  9 28  1  0  0  0  0
 10 12  1  0  0  0  0
 10 20  2  0  0  0  0
 10 11  1  0  0  0  0
 11 29  1  0  0  0  0
 11 30  1  0  0  0  0
 11 31  1  0  0  0  0
 12 32  1  0  0  0  0
 15 33  1  0  0  0  0
 17 34  1  0  0  0  0
 18 35  1  0  0  0  0
 19 36  1  0  0  0  0
M  END
$$$$
