DAN
 OpenBabel04051919123D

 36 36  0  0  1  0  0  0  0  0999 V2000
   23.5688   19.7528   64.9191 C   0  0  0  0  0  0  0  0  0  0  0  0
   24.2711   18.6467   64.0673 C   0  0  0  0  0  0  0  0  0  0  0  0
   23.6190   17.5895   63.6335 C   0  0  0  0  0  0  0  0  0  0  0  0
   24.2762   16.6325   62.7038 C   0  0  1  0  0  0  0  0  0  0  0  0
   25.8270   16.7181   62.7600 C   0  0  2  0  0  0  0  0  0  0  0  0
   26.2197   18.2005   62.7230 C   0  0  2  0  0  0  0  0  0  0  0  0
   27.7573   18.3981   62.8500 C   0  0  1  0  0  0  0  0  0  0  0  0
   28.1528   19.8843   62.7428 C   0  0  1  0  0  0  0  0  0  0  0  0
   29.6553   20.1528   62.9726 C   0  0  0  0  0  0  0  0  0  0  0  0
   27.1512   14.9020   61.6861 C   0  0  0  0  0  0  0  0  0  0  0  0
   27.5553   14.2183   60.4066 C   0  0  0  0  0  0  0  0  0  0  0  0
   26.3783   16.0153   61.5780 N   0  0  0  0  0  0  0  0  0  0  0  0
   24.3041   20.7447   65.1968 O   0  0  0  0  0  0  0  0  0  0  0  0
   22.3481   19.5581   65.1915 O   0  0  0  0  0  0  0  0  0  0  0  0
   23.8350   15.3122   63.0153 O   0  0  0  0  0  0  0  0  0  0  0  0
   25.6200   18.8966   63.8101 O   0  0  0  0  0  0  0  0  0  0  0  0
   28.2016   17.8986   64.1054 O   0  0  0  0  0  0  0  0  0  0  0  0
   27.8286   20.3058   61.4085 O   0  0  0  0  0  0  0  0  0  0  0  0
   30.4212   19.4243   61.9965 O   0  0  0  0  0  0  0  0  0  0  0  0
   27.5274   14.4736   62.7681 O   0  0  0  0  0  0  0  0  0  0  0  0
   22.5859   17.3993   63.9689 H   0  0  0  0  0  0  0  0  0  0  0  0
   23.9571   16.8437   61.6710 H   0  0  0  0  0  0  0  0  0  0  0  0
   26.2028   16.2748   63.6965 H   0  0  0  0  0  0  0  0  0  0  0  0
   25.8655   18.6409   61.7777 H   0  0  0  0  0  0  0  0  0  0  0  0
   28.2544   17.8533   62.0312 H   0  0  0  0  0  0  0  0  0  0  0  0
   27.5843   20.4845   63.4613 H   0  0  0  0  0  0  0  0  0  0  0  0
   29.9841   19.8370   63.9685 H   0  0  0  0  0  0  0  0  0  0  0  0
   29.9023   21.2199   62.8543 H   0  0  0  0  0  0  0  0  0  0  0  0
   28.1586   13.3363   60.6538 H   0  0  0  0  0  0  0  0  0  0  0  0
   28.1623   14.8911   59.7961 H   0  0  0  0  0  0  0  0  0  0  0  0
   26.6824   13.8897   59.8367 H   0  0  0  0  0  0  0  0  0  0  0  0
   26.1408   16.3718   60.6715 H   0  0  0  0  0  0  0  0  0  0  0  0
   22.8657   15.3123   62.9453 H   0  0  0  0  0  0  0  0  0  0  0  0
   27.7026   18.3964   64.7823 H   0  0  0  0  0  0  0  0  0  0  0  0
   28.3127   19.7016   60.8234 H   0  0  0  0  0  0  0  0  0  0  0  0
   30.1390   19.7350   61.1247 H   0  0  0  0  0  0  0  0  0  0  0  0
  1 14  2  0  0  0  0
  1 13  1  0  0  0  0
  1  2  1  0  0  0  0
  2 16  1  0  0  0  0
  2  3  2  0  0  0  0
  3  4  1  0  0  0  0
  3 21  1  0  0  0  0
  4 15  1  0  0  0  0
  4  5  1  0  0  0  0
  4 22  1  6  0  0  0
  5 12  1  0  0  0  0
  5  6  1  0  0  0  0
  5 23  1  1  0  0  0
  6 16  1  0  0  0  0
  6  7  1  0  0  0  0
  6 24  1  6  0  0  0
  7 17  1  0  0  0  0
  7  8  1  0  0  0  0
  7 25  1  6  0  0  0
  8 18  1  0  0  0  0
  8  9  1  0  0  0  0
  8 26  1  1  0  0  0
  9 19  1  0  0  0  0
  9 27  1  0  0  0  0
  9 28  1  0  0  0  0
 10 12  1  0  0  0  0
 10 20  2  0  0  0  0
 10 11  1  0  0  0  0
 11 29  1  0  0  0  0
 11 30  1  0  0  0  0
 11 31  1  0  0  0  0
 12 32  1  0  0  0  0
 15 33  1  0  0  0  0
 17 34  1  0  0  0  0
 18 35  1  0  0  0  0
 19 36  1  0  0  0  0
M  END
$$$$
