DEZ
 OpenBabel04051917253D

 19 18  0  0  1  0  0  0  0  0999 V2000
   24.0804   -8.3223   13.4864 O   0  0  0  0  0  0  0  0  0  0  0  0
   24.9831   -7.6110   14.0297 C   0  0  0  0  0  0  0  0  0  0  0  0
   24.8883   -6.4186   14.4578 O   0  0  0  0  0  0  0  0  0  0  0  0
   26.4325   -8.1944   14.0050 C   0  0  2  0  0  0  0  0  0  0  0  0
   26.7710   -8.7629   12.7203 O   0  0  0  0  0  0  0  0  0  0  0  0
   26.5375   -9.2565   15.1102 C   0  0  2  0  0  0  0  0  0  0  0  0
   26.3507   -8.6262   16.3970 O   0  0  0  0  0  0  0  0  0  0  0  0
   27.8955   -9.9936   15.0421 C   0  0  0  0  0  0  0  0  0  0  0  0
   28.0719  -10.7738   16.2059 O   0  0  0  0  0  0  0  0  0  0  0  0
   29.0682  -12.0761   16.1821 P   0  0  0  0  0  0  0  0  0  0  0  0
   30.4430  -11.5064   16.5212 O   0  0  0  0  0  0  0  0  0  0  0  0
   28.9698  -12.6621   14.7990 O   0  0  0  0  0  0  0  0  0  0  0  0
   28.4910  -12.9687   17.2780 O   0  0  0  0  0  0  0  0  0  0  0  0
   27.1473   -7.3754   14.2056 H   0  0  0  0  0  0  0  0  0  0  0  0
   26.6217   -8.0582   12.0756 H   0  0  0  0  0  0  0  0  0  0  0  0
   25.7411   -9.9978   14.9828 H   0  0  0  0  0  0  0  0  0  0  0  0
   27.0959   -7.9988   16.4924 H   0  0  0  0  0  0  0  0  0  0  0  0
   28.7085   -9.2518   14.9828 H   0  0  0  0  0  0  0  0  0  0  0  0
   27.9208  -10.6078   14.1343 H   0  0  0  0  0  0  0  0  0  0  0  0
  1  2  2  0  0  0  0
  2  3  1  0  0  0  0
  2  4  1  0  0  0  0
  4  5  1  0  0  0  0
  4  6  1  0  0  0  0
  4 14  1  1  0  0  0
  5 15  1  0  0  0  0
  6  7  1  0  0  0  0
  6  8  1  0  0  0  0
  6 16  1  6  0  0  0
  7 17  1  0  0  0  0
  8  9  1  0  0  0  0
  8 18  1  0  0  0  0
  8 19  1  0  0  0  0
  9 10  1  0  0  0  0
 10 11  2  0  0  0  0
 10 12  1  0  0  0  0
 10 13  1  0  0  0  0
M  END
$$$$
