DFZ
 OpenBabel04051917283D

 43 46  0  0  0  0  0  0  0  0999 V2000
    6.0488   -2.2220   19.5526 C   0  0  0  0  0  0  0  0  0  0  0  0
    2.1121   -4.3117   19.7015 C   0  0  0  0  0  0  0  0  0  0  0  0
    0.6979   -4.6368   20.0092 C   0  0  0  0  0  0  0  0  0  0  0  0
    0.1680   -5.9194   19.7985 C   0  0  0  0  0  0  0  0  0  0  0  0
   -1.1782   -6.2156   20.0456 C   0  0  0  0  0  0  0  0  0  0  0  0
   -2.0227   -5.2393   20.5472 C   0  0  0  0  0  0  0  0  0  0  0  0
   -1.5222   -3.9661   20.7976 C   0  0  0  0  0  0  0  0  0  0  0  0
   -0.1806   -3.6665   20.5233 C   0  0  0  0  0  0  0  0  0  0  0  0
    2.2463   -6.3602   17.1304 C   0  0  0  0  0  0  0  0  0  0  0  0
    2.0893   -7.6065   16.5221 C   0  0  0  0  0  0  0  0  0  0  0  0
    2.6648   -8.7421   17.0958 C   0  0  0  0  0  0  0  0  0  0  0  0
    3.3967   -8.6359   18.2777 C   0  0  0  0  0  0  0  0  0  0  0  0
    4.8240   -2.0326   20.0628 N   0  0  0  0  0  0  0  0  0  0  0  0
    4.0078   -3.0552   19.7651 C   0  0  0  0  0  0  0  0  0  0  0  0
    4.3233   -4.1861   19.0349 C   0  0  0  0  0  0  0  0  0  0  0  0
    6.0881   -5.3829   17.8502 N   0  0  0  0  0  0  0  0  0  0  0  0
    5.6479   -4.2896   18.5609 C   0  0  0  0  0  0  0  0  0  0  0  0
    6.4988   -3.2689   18.8358 N   0  0  0  0  0  0  0  0  0  0  0  0
    2.7059   -3.1497   20.1657 N   0  3  0  0  0  0  0  0  0  0  0  0
    3.5461   -7.3945   18.8951 C   0  0  0  0  0  0  0  0  0  0  0  0
    3.1215   -4.9699   18.9837 C   0  0  0  0  0  0  0  0  0  0  0  0
    2.9656   -6.2537   18.3257 C   0  0  0  0  0  0  0  0  0  0  0  0
    7.6219   -4.4152   16.1528 C   0  0  0  0  0  0  0  0  0  0  0  0
    7.4151   -5.4510   17.2662 C   0  0  0  0  0  0  0  0  0  0  0  0
    8.3235   -3.2740   16.6476 O   0  0  0  0  0  0  0  0  0  0  0  0
    6.7725   -1.4315   19.7455 H   0  0  0  0  0  0  0  0  0  0  0  0
    0.7806   -6.7377   19.4417 H   0  0  0  0  0  0  0  0  0  0  0  0
   -1.5511   -7.2167   19.8417 H   0  0  0  0  0  0  0  0  0  0  0  0
   -3.0658   -5.4696   20.7464 H   0  0  0  0  0  0  0  0  0  0  0  0
   -2.1778   -3.1988   21.2021 H   0  0  0  0  0  0  0  0  0  0  0  0
    0.1465   -2.6502   20.7179 H   0  0  0  0  0  0  0  0  0  0  0  0
    1.7831   -5.4819   16.6863 H   0  0  0  0  0  0  0  0  0  0  0  0
    1.5091   -7.6945   15.6068 H   0  0  0  0  0  0  0  0  0  0  0  0
    2.5401   -9.7114   16.6217 H   0  0  0  0  0  0  0  0  0  0  0  0
    3.8426   -9.5198   18.7249 H   0  0  0  0  0  0  0  0  0  0  0  0
    5.3778   -6.0015   17.4760 H   0  0  0  0  0  0  0  0  0  0  0  0
    2.2744   -2.4495   20.7415 H   0  0  0  0  0  0  0  0  0  0  0  0
    4.1094   -7.3185   19.8237 H   0  0  0  0  0  0  0  0  0  0  0  0
    6.6753   -4.0715   15.7239 H   0  0  0  0  0  0  0  0  0  0  0  0
    8.2267   -4.8440   15.3487 H   0  0  0  0  0  0  0  0  0  0  0  0
    7.5253   -6.4540   16.8399 H   0  0  0  0  0  0  0  0  0  0  0  0
    8.1722   -5.3479   18.0526 H   0  0  0  0  0  0  0  0  0  0  0  0
    7.8485   -3.0237   17.4685 H   0  0  0  0  0  0  0  0  0  0  0  0
  1 13  1  0  0  0  0
  1 18  2  0  0  0  0
  1 26  1  0  0  0  0
  2  3  1  0  0  0  0
  2 19  1  0  0  0  0
  2 21  2  0  0  0  0
  3  4  2  0  0  0  0
  3  8  1  0  0  0  0
  4  5  1  0  0  0  0
  4 27  1  0  0  0  0
  5  6  2  0  0  0  0
  5 28  1  0  0  0  0
  6  7  1  0  0  0  0
  6 29  1  0  0  0  0
  7  8  2  0  0  0  0
  7 30  1  0  0  0  0
  8 31  1  0  0  0  0
  9 10  2  0  0  0  0
  9 22  1  0  0  0  0
  9 32  1  0  0  0  0
 10 11  1  0  0  0  0
 10 33  1  0  0  0  0
 11 12  2  0  0  0  0
 11 34  1  0  0  0  0
 12 20  1  0  0  0  0
 12 35  1  0  0  0  0
 13 14  1  0  0  0  0
 14 15  1  0  0  0  0
 14 19  2  0  0  0  0
 15 17  2  0  0  0  0
 15 21  1  0  0  0  0
 16 17  1  0  0  0  0
 16 24  1  0  0  0  0
 16 36  1  0  0  0  0
 17 18  1  0  0  0  0
 19 37  1  0  0  0  0
 20 22  2  0  0  0  0
 20 38  1  0  0  0  0
 21 22  1  0  0  0  0
 23 24  1  0  0  0  0
 23 25  1  0  0  0  0
 23 39  1  0  0  0  0
 23 40  1  0  0  0  0
 24 41  1  0  0  0  0
 24 42  1  0  0  0  0
 25 43  1  0  0  0  0
M  CHG  1  19   1
M  END
$$$$
