DHI
 OpenBabel04051917483D

 20 20  0  0  1  0  0  0  0  0999 V2000
   -0.1872    2.2642   11.0068 N   0  3  0  0  0  0  0  0  0  0  0  0
    0.2637    3.6034   11.5707 C   0  0  1  0  0  0  0  0  0  0  0  0
    1.6915    3.9543   11.1075 C   0  0  0  0  0  0  0  0  0  0  0  0
    1.9420    3.4423    9.9716 O   0  0  0  0  0  0  0  0  0  0  0  0
   -0.6535    4.6975   11.0285 C   0  0  0  0  0  0  0  0  0  0  0  0
   -2.0668    4.4491   11.4335 C   0  0  0  0  0  0  0  0  0  0  0  0
   -2.7791    3.4028   10.8700 N   0  0  0  0  0  0  0  0  0  0  0  0
   -2.8195    5.0656   12.4025 C   0  0  0  0  0  0  0  0  0  0  0  0
   -3.9794    3.4758   11.4077 C   0  0  0  0  0  0  0  0  0  0  0  0
   -4.0406    4.4538   12.3611 N   0  3  0  0  0  0  0  0  0  0  0  0
    2.4096    4.5583   11.9341 O   0  0  0  0  0  0  0  0  0  0  0  0
   -1.1956    2.1155   11.1359 H   0  0  0  0  0  0  0  0  0  0  0  0
    0.0349    2.3254   10.0010 H   0  0  0  0  0  0  0  0  0  0  0  0
    0.2045    3.5119   12.6607 H   0  0  0  0  0  0  0  0  0  0  0  0
   -0.6000    4.7489    9.9322 H   0  0  0  0  0  0  0  0  0  0  0  0
   -0.3337    5.6813   11.4006 H   0  0  0  0  0  0  0  0  0  0  0  0
   -2.6004    5.8739   13.0866 H   0  0  0  0  0  0  0  0  0  0  0  0
   -4.8293    2.8552   11.1605 H   0  0  0  0  0  0  0  0  0  0  0  0
   -4.8468    4.6808   12.9298 H   0  0  0  0  0  0  0  0  0  0  0  0
    0.4040    1.5184   11.3747 H   0  0  0  0  0  0  0  0  0  0  0  0
  1  2  1  0  0  0  0
  1 12  1  0  0  0  0
  1 13  1  0  0  0  0
  1 20  1  0  0  0  0
  2  3  1  0  0  0  0
  2  5  1  0  0  0  0
  2 14  1  1  0  0  0
  3  4  2  0  0  0  0
  3 11  1  0  0  0  0
  5  6  1  0  0  0  0
  5 15  1  0  0  0  0
  5 16  1  0  0  0  0
  6  7  1  0  0  0  0
  6  8  2  0  0  0  0
  7  9  1  0  0  0  0
  8 10  1  0  0  0  0
  8 17  1  0  0  0  0
  9 10  2  0  0  0  0
  9 18  1  0  0  0  0
 10 19  1  0  0  0  0
M  CHG  2   1   1  10   1
M  END
$$$$
