DI9
 OpenBabel04051918053D

 35 36  0  0  0  0  0  0  0  0999 V2000
   19.6085    4.9694   58.5035 C   0  0  0  0  0  0  0  0  0  0  0  0
   21.0397    4.6152   58.0825 C   0  0  0  0  0  0  0  0  0  0  0  0
   21.4565    3.5329   59.0623 C   0  0  0  0  0  0  0  0  0  0  0  0
   20.8674    4.0552   60.3659 C   0  0  0  0  0  0  0  0  0  0  0  0
   19.4531    4.4588   59.9561 C   0  0  0  0  0  0  0  0  0  0  0  0
   18.5840    3.3415   59.9363 O   0  0  0  0  0  0  0  0  0  0  0  0
   17.6991    2.8595   61.1860 P   0  0  0  0  0  0  0  0  0  0  0  0
   17.2926    4.1564   62.0909 N   0  0  0  0  0  0  0  0  0  0  0  0
   16.5340    2.0279   60.7651 O   0  0  0  0  0  0  0  0  0  0  0  0
   18.7410    2.0336   62.0887 O   0  0  0  0  0  0  0  0  0  0  0  0
   18.3642    1.6752   63.4134 C   0  0  0  0  0  0  0  0  0  0  0  0
   18.4628    0.1655   63.6146 C   0  0  0  0  0  0  0  0  0  0  0  0
   19.9519   -0.0320   63.8597 C   0  0  0  0  0  0  0  0  0  0  0  0
   20.2530    1.0829   64.8495 C   0  0  0  0  0  0  0  0  0  0  0  0
   19.4230    2.2759   64.3502 C   0  0  0  0  0  0  0  0  0  0  0  0
   18.8862    4.4926   57.8313 H   0  0  0  0  0  0  0  0  0  0  0  0
   19.4645    6.0515   58.4445 H   0  0  0  0  0  0  0  0  0  0  0  0
   21.6846    5.4949   58.2044 H   0  0  0  0  0  0  0  0  0  0  0  0
   21.1058    4.2964   57.0385 H   0  0  0  0  0  0  0  0  0  0  0  0
   22.5402    3.3962   59.1070 H   0  0  0  0  0  0  0  0  0  0  0  0
   20.9956    2.5758   58.7905 H   0  0  0  0  0  0  0  0  0  0  0  0
   21.4303    4.9428   60.6893 H   0  0  0  0  0  0  0  0  0  0  0  0
   20.9007    3.3090   61.1606 H   0  0  0  0  0  0  0  0  0  0  0  0
   19.0498    5.2501   60.5922 H   0  0  0  0  0  0  0  0  0  0  0  0
   16.8742    4.9503   61.6261 H   0  0  0  0  0  0  0  0  0  0  0  0
   17.9287    4.4526   62.8219 H   0  0  0  0  0  0  0  0  0  0  0  0
   17.3546    2.0314   63.6509 H   0  0  0  0  0  0  0  0  0  0  0  0
   18.1003   -0.4173   62.7634 H   0  0  0  0  0  0  0  0  0  0  0  0
   17.9022   -0.1316   64.5078 H   0  0  0  0  0  0  0  0  0  0  0  0
   20.5128    0.1206   62.9318 H   0  0  0  0  0  0  0  0  0  0  0  0
   20.1942   -1.0217   64.2542 H   0  0  0  0  0  0  0  0  0  0  0  0
   21.3204    1.3142   64.9162 H   0  0  0  0  0  0  0  0  0  0  0  0
   19.9076    0.7971   65.8499 H   0  0  0  0  0  0  0  0  0  0  0  0
   18.9740    2.8016   65.1884 H   0  0  0  0  0  0  0  0  0  0  0  0
   20.0743    2.9804   63.8143 H   0  0  0  0  0  0  0  0  0  0  0  0
  1  2  1  0  0  0  0
  1  5  1  0  0  0  0
  1 16  1  0  0  0  0
  1 17  1  0  0  0  0
  2  3  1  0  0  0  0
  2 18  1  0  0  0  0
  2 19  1  0  0  0  0
  3  4  1  0  0  0  0
  3 20  1  0  0  0  0
  3 21  1  0  0  0  0
  4  5  1  0  0  0  0
  4 22  1  0  0  0  0
  4 23  1  0  0  0  0
  5  6  1  0  0  0  0
  5 24  1  0  0  0  0
  6  7  1  0  0  0  0
  7  8  1  0  0  0  0
  7  9  2  0  0  0  0
  7 10  1  0  0  0  0
  8 25  1  0  0  0  0
  8 26  1  0  0  0  0
 10 11  1  0  0  0  0
 11 12  1  0  0  0  0
 11 15  1  0  0  0  0
 11 27  1  0  0  0  0
 12 13  1  0  0  0  0
 12 28  1  0  0  0  0
 12 29  1  0  0  0  0
 13 14  1  0  0  0  0
 13 30  1  0  0  0  0
 13 31  1  0  0  0  0
 14 15  1  0  0  0  0
 14 32  1  0  0  0  0
 14 33  1  0  0  0  0
 15 34  1  0  0  0  0
 15 35  1  0  0  0  0
M  END
$$$$
