DIH
 OpenBabel04051918443D

 36 38  0  0  1  0  0  0  0  0999 V2000
   40.8603    5.0392  106.3578 O   0  0  0  0  0  0  0  0  0  0  0  0
   39.9144    4.0816  106.8017 C   0  0  0  0  0  0  0  0  0  0  0  0
   38.5216    4.5518  106.4117 C   0  0  1  0  0  0  0  0  0  0  0  0
   38.4389    4.8325  104.9021 C   0  0  0  0  0  0  0  0  0  0  0  0
   37.4643    3.4920  106.6964 C   0  0  1  0  0  0  0  0  0  0  0  0
   36.2467    4.1654  107.0275 O   0  0  0  0  0  0  0  0  0  0  0  0
   37.2693    2.7835  105.3597 C   0  0  0  0  0  0  0  0  0  0  0  0
   37.3456    3.9345  104.3907 N   0  3  2  0  0  0  0  0  0  0  0  0
   37.3817    3.5114  102.9545 C   0  0  0  0  0  0  0  0  0  0  0  0
   38.6815    3.0105  102.4362 C   0  0  2  0  0  0  0  0  0  0  0  0
   39.6843    3.7524  101.8285 C   0  0  0  0  0  0  0  0  0  0  0  0
   40.7029    2.9084  101.4332 N   0  3  0  0  0  0  0  0  0  0  0  0
   40.3593    1.6306  101.7727 C   0  0  2  0  0  0  0  0  0  0  0  0
   41.0668    0.4158  101.5334 C   0  0  0  0  0  0  0  0  0  0  0  0
   42.1470    0.3237  100.9727 O   0  0  0  0  0  0  0  0  0  0  0  0
   40.3737   -0.6694  102.0150 N   0  3  0  0  0  0  0  0  0  0  0  0
   39.1535   -0.5585  102.6499 C   0  0  0  0  0  0  0  0  0  0  0  0
   38.4976    0.5407  102.8871 N   0  0  0  0  0  0  0  0  0  0  0  0
   39.1463    1.6735  102.3938 C   0  0  2  0  0  0  0  0  0  0  0  0
   40.7276    5.8697  106.8509 H   0  0  0  0  0  0  0  0  0  0  0  0
   40.0017    3.9628  107.8871 H   0  0  0  0  0  0  0  0  0  0  0  0
   40.1547    3.1190  106.3372 H   0  0  0  0  0  0  0  0  0  0  0  0
   38.3081    5.4841  106.9510 H   0  0  0  0  0  0  0  0  0  0  0  0
   39.3720    4.5987  104.3871 H   0  0  0  0  0  0  0  0  0  0  0  0
   38.1504    5.8666  104.6873 H   0  0  0  0  0  0  0  0  0  0  0  0
   37.7196    2.7923  107.4982 H   0  0  0  0  0  0  0  0  0  0  0  0
   36.3661    4.5990  107.8959 H   0  0  0  0  0  0  0  0  0  0  0  0
   36.2822    2.3260  105.2479 H   0  0  0  0  0  0  0  0  0  0  0  0
   38.0777    2.0852  105.1360 H   0  0  0  0  0  0  0  0  0  0  0  0
   37.0656    4.3886  102.3761 H   0  0  0  0  0  0  0  0  0  0  0  0
   36.5976    2.7547  102.8358 H   0  0  0  0  0  0  0  0  0  0  0  0
   39.7615    4.8219  101.6311 H   0  0  0  0  0  0  0  0  0  0  0  0
   41.5515    3.1820  100.9536 H   0  0  0  0  0  0  0  0  0  0  0  0
   40.8057   -1.5743  101.8715 H   0  0  0  0  0  0  0  0  0  0  0  0
   38.7481   -1.5326  102.9739 H   0  0  0  0  0  0  0  0  0  0  0  0
   36.4640    4.4487  104.5297 H   0  0  0  0  0  0  0  0  0  0  0  0
  1  2  1  0  0  0  0
  1 20  1  0  0  0  0
  2  3  1  0  0  0  0
  2 21  1  0  0  0  0
  2 22  1  0  0  0  0
  3  4  1  0  0  0  0
  3  5  1  0  0  0  0
  3 23  1  1  0  0  0
  4  8  1  0  0  0  0
  4 24  1  0  0  0  0
  4 25  1  0  0  0  0
  5  6  1  0  0  0  0
  5  7  1  0  0  0  0
  5 26  1  1  0  0  0
  6 27  1  0  0  0  0
  7  8  1  0  0  0  0
  7 28  1  0  0  0  0
  7 29  1  0  0  0  0
  8  9  1  0  0  0  0
  8 36  1  1  0  0  0
  9 30  1  0  0  0  0
  9 31  1  0  0  0  0
 10  9  1  6  0  0  0
 10 11  1  0  0  0  0
 10 19  1  0  0  0  0
 11 12  1  0  0  0  0
 11 32  1  0  0  0  0
 12 33  1  0  0  0  0
 13 12  1  6  0  0  0
 13 14  1  0  0  0  0
 13 19  1  0  0  0  0
 14 15  2  0  0  0  0
 14 16  1  0  0  0  0
 16 17  1  0  0  0  0
 16 34  1  0  0  0  0
 17 18  1  0  0  0  0
 17 35  1  0  0  0  0
 19 18  1  6  0  0  0
M  CHG  3   8   1  12   1  16   1
M  END
$$$$
