DJR
 OpenBabel04051918143D

 77 80  0  0  1  0  0  0  0  0999 V2000
   11.9855   18.1096   18.4725 C   0  0  1  0  0  0  0  0  0  0  0  0
   10.9928   18.6454   20.5603 O   0  0  0  0  0  0  0  0  0  0  0  0
   10.6762   18.1836   19.2411 C   0  0  1  0  0  0  0  0  0  0  0  0
    9.8502   19.0563   18.4620 O   0  0  0  0  0  0  0  0  0  0  0  0
   10.2141   18.7741   17.0918 C   0  0  0  0  0  0  0  0  0  0  0  0
   11.7043   18.5591   17.0743 C   0  0  0  0  0  0  0  0  0  0  0  0
   12.4287   18.7272   20.6570 C   0  0  0  0  0  0  0  0  0  0  0  0
   12.9594   18.9475   19.2551 C   0  0  2  0  0  0  0  0  0  0  0  0
   12.8233   20.3350   18.9373 O   0  0  0  0  0  0  0  0  0  0  0  0
   13.8556   20.8776   18.2878 C   0  0  0  0  0  0  0  0  0  0  0  0
   14.9314   20.3282   18.0314 O   0  0  0  0  0  0  0  0  0  0  0  0
   13.5496   22.1474   17.9525 N   0  0  0  0  0  0  0  0  0  0  0  0
   14.4806   22.9888   17.2425 C   0  0  1  0  0  0  0  0  0  0  0  0
   13.8224   23.5119   15.9635 C   0  0  0  0  0  0  0  0  0  0  0  0
   13.3424   22.4198   15.0589 C   0  0  0  0  0  0  0  0  0  0  0  0
   14.2482   21.6842   14.2841 C   0  0  0  0  0  0  0  0  0  0  0  0
   13.7971   20.6398   13.4736 C   0  0  0  0  0  0  0  0  0  0  0  0
   12.4413   20.3209   13.4345 C   0  0  0  0  0  0  0  0  0  0  0  0
   11.5375   21.0493   14.2039 C   0  0  0  0  0  0  0  0  0  0  0  0
   11.9856   22.0918   15.0140 C   0  0  0  0  0  0  0  0  0  0  0  0
   14.9169   24.1101   18.1941 C   0  0  2  0  0  0  0  0  0  0  0  0
   13.7480   24.7742   18.7035 O   0  0  0  0  0  0  0  0  0  0  0  0
   15.8251   25.1149   17.4950 C   0  0  0  0  0  0  0  0  0  0  0  0
   17.2132   24.6852   17.5113 N   0  0  0  0  0  0  0  0  0  0  0  0
   17.8915   24.2187   16.0388 S   0  0  0  0  0  0  0  0  0  0  0  0
   18.7287   23.0693   16.2647 O   0  0  0  0  0  0  0  0  0  0  0  0
   16.8793   24.1527   15.0597 O   0  0  0  0  0  0  0  0  0  0  0  0
   18.9227   25.6397   15.5942 C   0  0  0  0  0  0  0  0  0  0  0  0
   20.2790   25.6979   15.8969 C   0  0  0  0  0  0  0  0  0  0  0  0
   21.0392   26.8354   15.5386 C   0  0  0  0  0  0  0  0  0  0  0  0
   20.4541   27.9088   14.8624 C   0  0  0  0  0  0  0  0  0  0  0  0
   21.1127   29.0477   14.4702 O   0  0  0  0  0  0  0  0  0  0  0  0
   22.5035   29.0878   14.8107 C   0  0  0  0  0  0  0  0  0  0  0  0
   19.0677   27.8399   14.5440 C   0  0  0  0  0  0  0  0  0  0  0  0
   18.3190   26.7064   14.9119 C   0  0  0  0  0  0  0  0  0  0  0  0
   18.0352   25.0336   18.6732 C   0  0  0  0  0  0  0  0  0  0  0  0
   17.8637   24.0503   19.8375 C   0  0  0  0  0  0  0  0  0  0  0  0
   18.8576   24.3726   20.9495 C   0  0  0  0  0  0  0  0  0  0  0  0
   18.0734   22.6126   19.3810 C   0  0  0  0  0  0  0  0  0  0  0  0
   12.3213   17.0753   18.5133 H   0  0  0  0  0  0  0  0  0  0  0  0
   10.1660   17.2124   19.3103 H   0  0  0  0  0  0  0  0  0  0  0  0
    9.8990   19.5859   16.4415 H   0  0  0  0  0  0  0  0  0  0  0  0
    9.6970   17.8527   16.7946 H   0  0  0  0  0  0  0  0  0  0  0  0
   12.0204   17.7854   16.3808 H   0  0  0  0  0  0  0  0  0  0  0  0
   12.2342   19.4647   16.7894 H   0  0  0  0  0  0  0  0  0  0  0  0
   12.7930   17.7742   21.0529 H   0  0  0  0  0  0  0  0  0  0  0  0
   12.6924   19.5434   21.3330 H   0  0  0  0  0  0  0  0  0  0  0  0
   13.9855   18.5909   19.1296 H   0  0  0  0  0  0  0  0  0  0  0  0
   12.6421   22.5016   18.2158 H   0  0  0  0  0  0  0  0  0  0  0  0
   15.3652   22.3974   16.9768 H   0  0  0  0  0  0  0  0  0  0  0  0
   14.5167   24.1012   15.3738 H   0  0  0  0  0  0  0  0  0  0  0  0
   13.0033   24.1944   16.2179 H   0  0  0  0  0  0  0  0  0  0  0  0
   15.3149   21.9281   14.3165 H   0  0  0  0  0  0  0  0  0  0  0  0
   14.5123   20.0803   12.8703 H   0  0  0  0  0  0  0  0  0  0  0  0
   12.0925   19.5114   12.8040 H   0  0  0  0  0  0  0  0  0  0  0  0
   10.4730   20.8029   14.1792 H   0  0  0  0  0  0  0  0  0  0  0  0
   11.2727   22.6490   15.6254 H   0  0  0  0  0  0  0  0  0  0  0  0
   15.4157   23.6627   19.0517 H   0  0  0  0  0  0  0  0  0  0  0  0
   14.0512   25.4786   19.3155 H   0  0  0  0  0  0  0  0  0  0  0  0
   15.6791   26.1114   17.9165 H   0  0  0  0  0  0  0  0  0  0  0  0
   15.4882   25.2384   16.4794 H   0  0  0  0  0  0  0  0  0  0  0  0
   20.7810   24.8907   16.4259 H   0  0  0  0  0  0  0  0  0  0  0  0
   22.0854   26.8694   15.7777 H   0  0  0  0  0  0  0  0  0  0  0  0
   22.9516   30.0253   14.4667 H   0  0  0  0  0  0  0  0  0  0  0  0
   23.0492   28.2689   14.3265 H   0  0  0  0  0  0  0  0  0  0  0  0
   22.6409   29.0409   15.8980 H   0  0  0  0  0  0  0  0  0  0  0  0
   18.5738   28.6520   14.0150 H   0  0  0  0  0  0  0  0  0  0  0  0
   17.2539   26.6587   14.6670 H   0  0  0  0  0  0  0  0  0  0  0  0
   17.7998   26.0517   19.0192 H   0  0  0  0  0  0  0  0  0  0  0  0
   19.0906   25.0418   18.3858 H   0  0  0  0  0  0  0  0  0  0  0  0
   16.8620   24.1490   20.2680 H   0  0  0  0  0  0  0  0  0  0  0  0
   18.7464   23.6824   21.7919 H   0  0  0  0  0  0  0  0  0  0  0  0
   18.7115   25.3907   21.3206 H   0  0  0  0  0  0  0  0  0  0  0  0
   19.8821   24.2889   20.5767 H   0  0  0  0  0  0  0  0  0  0  0  0
   17.3636   22.3397   18.5988 H   0  0  0  0  0  0  0  0  0  0  0  0
   17.9391   21.9093   20.2064 H   0  0  0  0  0  0  0  0  0  0  0  0
   19.0834   22.4855   18.9816 H   0  0  0  0  0  0  0  0  0  0  0  0
  1  3  1  0  0  0  0
  1  6  1  0  0  0  0
  1  8  1  0  0  0  0
  1 40  1  6  0  0  0
  2  3  1  0  0  0  0
  2  7  1  0  0  0  0
  3  4  1  0  0  0  0
  3 41  1  1  0  0  0
  4  5  1  0  0  0  0
  5  6  1  0  0  0  0
  5 42  1  0  0  0  0
  5 43  1  0  0  0  0
  6 44  1  0  0  0  0
  6 45  1  0  0  0  0
  7  8  1  0  0  0  0
  7 46  1  0  0  0  0
  7 47  1  0  0  0  0
  8  9  1  0  0  0  0
  8 48  1  6  0  0  0
  9 10  1  0  0  0  0
 10 11  2  0  0  0  0
 10 12  1  0  0  0  0
 12 13  1  0  0  0  0
 12 49  1  0  0  0  0
 13 14  1  0  0  0  0
 13 21  1  0  0  0  0
 13 50  1  6  0  0  0
 14 15  1  0  0  0  0
 14 51  1  0  0  0  0
 14 52  1  0  0  0  0
 15 16  2  0  0  0  0
 15 20  1  0  0  0  0
 16 17  1  0  0  0  0
 16 53  1  0  0  0  0
 17 18  2  0  0  0  0
 17 54  1  0  0  0  0
 18 19  1  0  0  0  0
 18 55  1  0  0  0  0
 19 20  2  0  0  0  0
 19 56  1  0  0  0  0
 20 57  1  0  0  0  0
 21 22  1  0  0  0  0
 21 23  1  0  0  0  0
 21 58  1  1  0  0  0
 22 59  1  0  0  0  0
 23 24  1  0  0  0  0
 23 60  1  0  0  0  0
 23 61  1  0  0  0  0
 24 25  1  0  0  0  0
 24 36  1  0  0  0  0
 25 26  2  0  0  0  0
 25 27  2  0  0  0  0
 25 28  1  0  0  0  0
 28 29  2  0  0  0  0
 28 35  1  0  0  0  0
 29 30  1  0  0  0  0
 29 62  1  0  0  0  0
 30 31  2  0  0  0  0
 30 63  1  0  0  0  0
 31 32  1  0  0  0  0
 31 34  1  0  0  0  0
 32 33  1  0  0  0  0
 33 64  1  0  0  0  0
 33 65  1  0  0  0  0
 33 66  1  0  0  0  0
 34 35  2  0  0  0  0
 34 67  1  0  0  0  0
 35 68  1  0  0  0  0
 36 37  1  0  0  0  0
 36 69  1  0  0  0  0
 36 70  1  0  0  0  0
 37 38  1  0  0  0  0
 37 39  1  0  0  0  0
 37 71  1  0  0  0  0
 38 72  1  0  0  0  0
 38 73  1  0  0  0  0
 38 74  1  0  0  0  0
 39 75  1  0  0  0  0
 39 76  1  0  0  0  0
 39 77  1  0  0  0  0
M  END
$$$$
