DRJ
 OpenBabel04051918143D

 68 70  0  0  1  0  0  0  0  0999 V2000
   20.8933   20.2210   21.2534 C   0  0  0  0  0  0  0  0  0  0  0  0
   21.1728   19.3494   20.0320 C   0  0  0  0  0  0  0  0  0  0  0  0
   19.9232   18.6701   19.4112 C   0  0  1  0  0  0  0  0  0  0  0  0
   19.3489   17.7792   20.5703 C   0  0  0  0  0  0  0  0  0  0  0  0
   20.1179   16.8950   21.0455 O   0  0  0  0  0  0  0  0  0  0  0  0
   18.1572   18.0449   20.9176 O   0  0  0  0  0  0  0  0  0  0  0  0
   18.9711   19.7499   18.8721 C   0  0  0  0  0  0  0  0  0  0  0  0
   20.4501   17.8661   18.3047 O   0  0  0  0  0  0  0  0  0  0  0  0
   19.5696   17.2140   17.4860 C   0  0  0  0  0  0  0  0  0  0  0  0
   18.3540   16.6675   17.8891 C   0  0  0  0  0  0  0  0  0  0  0  0
   17.4911   16.0894   16.9661 C   0  0  0  0  0  0  0  0  0  0  0  0
   19.9528   17.1030   16.1479 C   0  0  0  0  0  0  0  0  0  0  0  0
   19.0956   16.5184   15.2154 C   0  0  0  0  0  0  0  0  0  0  0  0
   17.8507   16.0243   15.6226 C   0  0  0  0  0  0  0  0  0  0  0  0
   16.8607   15.5222   14.6177 C   0  0  0  0  0  0  0  0  0  0  0  0
   15.9040   16.6537   14.2141 C   0  0  0  0  0  0  0  0  0  0  0  0
   15.2713   16.3404   12.9356 N   0  0  0  0  0  0  0  0  0  0  0  0
   13.9417   15.7390   12.8495 C   0  0  0  0  0  0  0  0  0  0  0  0
   13.5562   14.9449   14.1038 C   0  0  0  0  0  0  0  0  0  0  0  0
   12.1535   14.3414   14.0570 C   0  0  0  0  0  0  0  0  0  0  0  0
   11.7850   13.8309   15.4550 C   0  0  0  0  0  0  0  0  0  0  0  0
   10.3132   13.4477   15.5709 C   0  0  0  0  0  0  0  0  0  0  0  0
    9.9242   13.2574   17.0384 C   0  0  0  0  0  0  0  0  0  0  0  0
    8.5464   12.6351   17.1757 C   0  0  0  0  0  0  0  0  0  0  0  0
   15.9437   16.6282   11.7953 C   0  0  0  0  0  0  0  0  0  0  0  0
   17.2173   17.1322   11.9345 O   0  0  0  0  0  0  0  0  0  0  0  0
   17.6702   17.2765   10.6620 C   0  0  0  0  0  0  0  0  0  0  0  0
   18.9172   17.7369   10.2543 C   0  0  0  0  0  0  0  0  0  0  0  0
   19.1215   17.7750    8.8697 C   0  0  0  0  0  0  0  0  0  0  0  0
   18.1209   17.3744    7.9736 C   0  0  0  0  0  0  0  0  0  0  0  0
   16.8751   16.9169    8.4341 C   0  0  0  0  0  0  0  0  0  0  0  0
   16.6559   16.8683    9.8122 C   0  0  0  0  0  0  0  0  0  0  0  0
   15.5669   16.4657   10.5430 N   0  0  0  0  0  0  0  0  0  0  0  0
   21.8271   20.6452   21.6335 H   0  0  0  0  0  0  0  0  0  0  0  0
   20.4401   19.6451   22.0660 H   0  0  0  0  0  0  0  0  0  0  0  0
   20.2278   21.0538   21.0116 H   0  0  0  0  0  0  0  0  0  0  0  0
   21.9191   18.5896   20.3011 H   0  0  0  0  0  0  0  0  0  0  0  0
   21.6670   19.9622   19.2660 H   0  0  0  0  0  0  0  0  0  0  0  0
   18.0898   19.3193   18.3868 H   0  0  0  0  0  0  0  0  0  0  0  0
   19.4704   20.3658   18.1152 H   0  0  0  0  0  0  0  0  0  0  0  0
   18.5951   20.4043   19.6635 H   0  0  0  0  0  0  0  0  0  0  0  0
   18.0241   16.6846   18.9194 H   0  0  0  0  0  0  0  0  0  0  0  0
   16.5297   15.7197   17.3137 H   0  0  0  0  0  0  0  0  0  0  0  0
   20.9092   17.5063   15.8268 H   0  0  0  0  0  0  0  0  0  0  0  0
   19.3857   16.4785   14.1686 H   0  0  0  0  0  0  0  0  0  0  0  0
   16.3063   14.6770   15.0420 H   0  0  0  0  0  0  0  0  0  0  0  0
   17.3947   15.1147   13.7508 H   0  0  0  0  0  0  0  0  0  0  0  0
   16.4305   17.6159   14.1496 H   0  0  0  0  0  0  0  0  0  0  0  0
   15.1681   16.8323   15.0079 H   0  0  0  0  0  0  0  0  0  0  0  0
   13.8892   15.0568   11.9918 H   0  0  0  0  0  0  0  0  0  0  0  0
   13.2041   16.5322   12.6778 H   0  0  0  0  0  0  0  0  0  0  0  0
   13.5903   15.6048   14.9756 H   0  0  0  0  0  0  0  0  0  0  0  0
   14.2806   14.1412   14.2741 H   0  0  0  0  0  0  0  0  0  0  0  0
   12.1148   13.5221   13.3300 H   0  0  0  0  0  0  0  0  0  0  0  0
   11.4337   15.1033   13.7378 H   0  0  0  0  0  0  0  0  0  0  0  0
   12.0100   14.6063   16.1981 H   0  0  0  0  0  0  0  0  0  0  0  0
   12.4111   12.9647   15.7061 H   0  0  0  0  0  0  0  0  0  0  0  0
   10.1305   12.5296   15.0014 H   0  0  0  0  0  0  0  0  0  0  0  0
    9.6838   14.2333   15.1354 H   0  0  0  0  0  0  0  0  0  0  0  0
    9.9328   14.2301   17.5465 H   0  0  0  0  0  0  0  0  0  0  0  0
   10.6583   12.6231   17.5484 H   0  0  0  0  0  0  0  0  0  0  0  0
    8.2826   12.5294   18.2326 H   0  0  0  0  0  0  0  0  0  0  0  0
    8.5247   11.6404   16.7195 H   0  0  0  0  0  0  0  0  0  0  0  0
    7.7843   13.2541   16.6926 H   0  0  0  0  0  0  0  0  0  0  0  0
   19.6770   18.0391   10.9647 H   0  0  0  0  0  0  0  0  0  0  0  0
   20.0782   18.1219    8.4822 H   0  0  0  0  0  0  0  0  0  0  0  0
   18.3100   17.4145    6.9043 H   0  0  0  0  0  0  0  0  0  0  0  0
   16.0977   16.6016    7.7474 H   0  0  0  0  0  0  0  0  0  0  0  0
  1  2  1  0  0  0  0
  1 34  1  0  0  0  0
  1 35  1  0  0  0  0
  1 36  1  0  0  0  0
  2 37  1  0  0  0  0
  2 38  1  0  0  0  0
  3  2  1  1  0  0  0
  3  4  1  0  0  0  0
  3  7  1  0  0  0  0
  3  8  1  0  0  0  0
  4  5  2  0  0  0  0
  4  6  1  0  0  0  0
  7 39  1  0  0  0  0
  7 40  1  0  0  0  0
  7 41  1  0  0  0  0
  8  9  1  0  0  0  0
  9 10  2  0  0  0  0
  9 12  1  0  0  0  0
 10 11  1  0  0  0  0
 10 42  1  0  0  0  0
 11 14  2  0  0  0  0
 11 43  1  0  0  0  0
 12 13  2  0  0  0  0
 12 44  1  0  0  0  0
 13 14  1  0  0  0  0
 13 45  1  0  0  0  0
 14 15  1  0  0  0  0
 15 16  1  0  0  0  0
 15 46  1  0  0  0  0
 15 47  1  0  0  0  0
 16 17  1  0  0  0  0
 16 48  1  0  0  0  0
 16 49  1  0  0  0  0
 17 18  1  0  0  0  0
 17 25  1  0  0  0  0
 18 19  1  0  0  0  0
 18 50  1  0  0  0  0
 18 51  1  0  0  0  0
 19 20  1  0  0  0  0
 19 52  1  0  0  0  0
 19 53  1  0  0  0  0
 20 21  1  0  0  0  0
 20 54  1  0  0  0  0
 20 55  1  0  0  0  0
 21 22  1  0  0  0  0
 21 56  1  0  0  0  0
 21 57  1  0  0  0  0
 22 23  1  0  0  0  0
 22 58  1  0  0  0  0
 22 59  1  0  0  0  0
 23 24  1  0  0  0  0
 23 60  1  0  0  0  0
 23 61  1  0  0  0  0
 24 62  1  0  0  0  0
 24 63  1  0  0  0  0
 24 64  1  0  0  0  0
 25 26  1  0  0  0  0
 25 33  2  0  0  0  0
 26 27  1  0  0  0  0
 27 28  2  0  0  0  0
 27 32  1  0  0  0  0
 28 29  1  0  0  0  0
 28 65  1  0  0  0  0
 29 30  2  0  0  0  0
 29 66  1  0  0  0  0
 30 31  1  0  0  0  0
 30 67  1  0  0  0  0
 31 32  2  0  0  0  0
 31 68  1  0  0  0  0
 32 33  1  0  0  0  0
M  END
$$$$
