DSN
 OpenBabel04051919203D

 14 13  0  0  1  0  0  0  0  0999 V2000
   56.8572   23.8616   24.5847 N   0  3  0  0  0  0  0  0  0  0  0  0
   57.2875   23.1565   23.3034 C   0  0  1  0  0  0  0  0  0  0  0  0
   58.0415   24.0878   22.3286 C   0  0  0  0  0  0  0  0  0  0  0  0
   58.8233   23.5895   21.4999 O   0  0  0  0  0  0  0  0  0  0  0  0
   57.7144   25.3054   22.5851 O   0  0  0  0  0  0  0  0  0  0  0  0
   58.0444   21.8796   23.6453 C   0  0  0  0  0  0  0  0  0  0  0  0
   59.2534   22.0912   24.3726 O   0  0  0  0  0  0  0  0  0  0  0  0
   56.3165   23.2906   25.2267 H   0  0  0  0  0  0  0  0  0  0  0  0
   57.6902   24.2797   25.0095 H   0  0  0  0  0  0  0  0  0  0  0  0
   56.3405   22.8893   22.8097 H   0  0  0  0  0  0  0  0  0  0  0  0
   58.2918   21.3224   22.7345 H   0  0  0  0  0  0  0  0  0  0  0  0
   57.4125   21.2270   24.2581 H   0  0  0  0  0  0  0  0  0  0  0  0
   59.0965   22.5377   25.2139 H   0  0  0  0  0  0  0  0  0  0  0  0
   56.3298   24.6874   24.2564 H   0  0  0  0  0  0  0  0  0  0  0  0
  1  2  1  0  0  0  0
  1  8  1  0  0  0  0
  1  9  1  0  0  0  0
  1 14  1  0  0  0  0
  2  3  1  0  0  0  0
  2  6  1  0  0  0  0
  2 10  1  6  0  0  0
  3  4  2  0  0  0  0
  3  5  1  0  0  0  0
  6  7  1  0  0  0  0
  6 11  1  0  0  0  0
  6 12  1  0  0  0  0
  7 13  1  0  0  0  0
M  CHG  1   1   1
M  END
$$$$
