DUQ
 OpenBabel04051920393D

 69 72  0  0  1  0  0  0  0  0999 V2000
   -2.0285   25.3859   -0.9261 O   0  0  0  0  0  0  0  0  0  0  0  0
   -3.1726   25.4022   -0.4732 C   0  0  0  0  0  0  0  0  0  0  0  0
   -4.0631   24.3741   -0.6055 N   0  3  0  0  0  0  0  0  0  0  0  0
   -5.3341   24.4208   -0.0805 C   0  0  0  0  0  0  0  0  0  0  0  0
   -6.1103   23.4762   -0.2023 O   0  0  0  0  0  0  0  0  0  0  0  0
   -3.6130   26.5899    0.2410 C   0  0  0  0  0  0  0  0  0  0  0  0
   -4.8569   26.6332    0.7138 C   0  0  0  0  0  0  0  0  0  0  0  0
   -5.7122   25.5604    0.5782 N   0  3  0  0  0  0  0  0  0  0  0  0
   -7.1323   25.6364    1.0342 C   0  0  0  0  0  0  0  0  0  0  0  0
   -7.8347   26.8364    0.3851 C   0  0  2  0  0  0  0  0  0  0  0  0
   -9.2650   27.0811    0.7935 C   0  0  0  0  0  0  0  0  0  0  0  0
  -10.3177   26.6039    0.1063 N   0  0  0  0  0  0  0  0  0  0  0  0
  -11.7251   26.8494    0.4703 C   0  0  0  0  0  0  0  0  0  0  0  0
  -12.5467   25.9726   -0.4567 C   0  0  0  0  0  0  0  0  0  0  0  0
  -12.5896   26.6410   -1.7175 O   0  0  0  0  0  0  0  0  0  0  0  0
   -9.4969   27.7606    1.8223 O   0  0  0  0  0  0  0  0  0  0  0  0
   -7.6231   26.8940   -1.1060 C   0  0  0  0  0  0  0  0  0  0  0  0
   -8.3284   28.0083   -1.8525 C   0  0  0  0  0  0  0  0  0  0  0  0
   -9.0184   27.2887   -2.8642 O   0  0  0  0  0  0  0  0  0  0  0  0
   -8.4566   27.2095   -4.2031 C   0  0  0  0  0  0  0  0  0  0  0  0
   -9.2796   26.0807   -4.8599 C   0  0  0  0  0  0  0  0  0  0  0  0
  -10.4641   25.6278   -4.2603 C   0  0  0  0  0  0  0  0  0  0  0  0
  -11.1961   24.5929   -4.8451 C   0  0  0  0  0  0  0  0  0  0  0  0
  -10.7931   24.0200   -6.0538 C   0  0  0  0  0  0  0  0  0  0  0  0
   -9.6403   24.4827   -6.6757 C   0  0  0  0  0  0  0  0  0  0  0  0
   -8.9076   25.5167   -6.0908 C   0  0  0  0  0  0  0  0  0  0  0  0
   -8.8649   28.5076   -4.9197 C   0  0  0  0  0  0  0  0  0  0  0  0
   -9.8898   29.3059   -4.3650 C   0  0  0  0  0  0  0  0  0  0  0  0
  -10.2933   30.4846   -4.9848 C   0  0  0  0  0  0  0  0  0  0  0  0
   -9.7061   30.8539   -6.1982 C   0  0  0  0  0  0  0  0  0  0  0  0
   -8.7056   30.0637   -6.7803 C   0  0  0  0  0  0  0  0  0  0  0  0
   -8.2896   28.8921   -6.1469 C   0  0  0  0  0  0  0  0  0  0  0  0
   -6.9238   26.9129   -4.1360 C   0  0  0  0  0  0  0  0  0  0  0  0
   -6.4360   25.6235   -3.8080 C   0  0  0  0  0  0  0  0  0  0  0  0
   -5.0591   25.3618   -3.6674 C   0  0  0  0  0  0  0  0  0  0  0  0
   -4.1364   26.3904   -3.8771 C   0  0  0  0  0  0  0  0  0  0  0  0
   -4.5890   27.6765   -4.1940 C   0  0  0  0  0  0  0  0  0  0  0  0
   -5.9647   27.9336   -4.3100 C   0  0  0  0  0  0  0  0  0  0  0  0
   -3.7563   23.5511   -1.1122 H   0  0  0  0  0  0  0  0  0  0  0  0
   -2.8923   27.3746    0.3393 H   0  0  0  0  0  0  0  0  0  0  0  0
   -5.2265   27.5255    1.2057 H   0  0  0  0  0  0  0  0  0  0  0  0
   -7.1490   25.7228    2.1333 H   0  0  0  0  0  0  0  0  0  0  0  0
   -7.6499   24.7009    0.7710 H   0  0  0  0  0  0  0  0  0  0  0  0
   -7.3044   27.7030    0.7860 H   0  0  0  0  0  0  0  0  0  0  0  0
  -10.1538   26.0913   -0.7503 H   0  0  0  0  0  0  0  0  0  0  0  0
  -11.9857   27.9138    0.3372 H   0  0  0  0  0  0  0  0  0  0  0  0
  -11.8892   26.5811    1.5238 H   0  0  0  0  0  0  0  0  0  0  0  0
  -13.5545   25.8266   -0.0682 H   0  0  0  0  0  0  0  0  0  0  0  0
  -12.0545   24.9942   -0.5730 H   0  0  0  0  0  0  0  0  0  0  0  0
  -13.0950   26.1068   -2.3501 H   0  0  0  0  0  0  0  0  0  0  0  0
   -7.9519   25.9345   -1.5196 H   0  0  0  0  0  0  0  0  0  0  0  0
   -6.5517   27.0104   -1.2855 H   0  0  0  0  0  0  0  0  0  0  0  0
   -7.6367   28.7483   -2.2697 H   0  0  0  0  0  0  0  0  0  0  0  0
   -9.0512   28.5526   -1.2183 H   0  0  0  0  0  0  0  0  0  0  0  0
  -10.8137   26.0902   -3.3356 H   0  0  0  0  0  0  0  0  0  0  0  0
  -12.0844   24.2261   -4.3506 H   0  0  0  0  0  0  0  0  0  0  0  0
  -11.3830   23.2229   -6.5043 H   0  0  0  0  0  0  0  0  0  0  0  0
   -9.2962   24.0491   -7.6110 H   0  0  0  0  0  0  0  0  0  0  0  0
   -8.0305   25.8943   -6.6033 H   0  0  0  0  0  0  0  0  0  0  0  0
  -10.3723   28.9918   -3.4356 H   0  0  0  0  0  0  0  0  0  0  0  0
  -11.0603   31.1098   -4.5275 H   0  0  0  0  0  0  0  0  0  0  0  0
  -10.0320   31.7646   -6.6965 H   0  0  0  0  0  0  0  0  0  0  0  0
   -8.2550   30.3613   -7.7266 H   0  0  0  0  0  0  0  0  0  0  0  0
   -7.5065   28.2786   -6.5978 H   0  0  0  0  0  0  0  0  0  0  0  0
   -7.1545   24.8162   -3.6540 H   0  0  0  0  0  0  0  0  0  0  0  0
   -4.7041   24.3644   -3.3973 H   0  0  0  0  0  0  0  0  0  0  0  0
   -3.0667   26.1901   -3.7938 H   0  0  0  0  0  0  0  0  0  0  0  0
   -3.8737   28.4848   -4.3497 H   0  0  0  0  0  0  0  0  0  0  0  0
   -6.2910   28.9486   -4.5440 H   0  0  0  0  0  0  0  0  0  0  0  0
  1  2  2  0  0  0  0
  2  3  1  0  0  0  0
  2  6  1  0  0  0  0
  3  4  1  0  0  0  0
  3 39  1  0  0  0  0
  4  5  2  0  0  0  0
  4  8  1  0  0  0  0
  6  7  2  0  0  0  0
  6 40  1  0  0  0  0
  7  8  1  0  0  0  0
  7 41  1  0  0  0  0
  8  9  1  0  0  0  0
  9 10  1  0  0  0  0
  9 42  1  0  0  0  0
  9 43  1  0  0  0  0
 10 11  1  0  0  0  0
 10 17  1  0  0  0  0
 10 44  1  1  0  0  0
 11 12  1  0  0  0  0
 11 16  2  0  0  0  0
 12 13  1  0  0  0  0
 12 45  1  0  0  0  0
 13 14  1  0  0  0  0
 13 46  1  0  0  0  0
 13 47  1  0  0  0  0
 14 15  1  0  0  0  0
 14 48  1  0  0  0  0
 14 49  1  0  0  0  0
 15 50  1  0  0  0  0
 17 18  1  0  0  0  0
 17 51  1  0  0  0  0
 17 52  1  0  0  0  0
 18 19  1  0  0  0  0
 18 53  1  0  0  0  0
 18 54  1  0  0  0  0
 19 20  1  0  0  0  0
 20 21  1  0  0  0  0
 20 27  1  0  0  0  0
 20 33  1  0  0  0  0
 21 22  2  0  0  0  0
 21 26  1  0  0  0  0
 22 23  1  0  0  0  0
 22 55  1  0  0  0  0
 23 24  2  0  0  0  0
 23 56  1  0  0  0  0
 24 25  1  0  0  0  0
 24 57  1  0  0  0  0
 25 26  2  0  0  0  0
 25 58  1  0  0  0  0
 26 59  1  0  0  0  0
 27 28  2  0  0  0  0
 27 32  1  0  0  0  0
 28 29  1  0  0  0  0
 28 60  1  0  0  0  0
 29 30  2  0  0  0  0
 29 61  1  0  0  0  0
 30 31  1  0  0  0  0
 30 62  1  0  0  0  0
 31 32  2  0  0  0  0
 31 63  1  0  0  0  0
 32 64  1  0  0  0  0
 33 34  2  0  0  0  0
 33 38  1  0  0  0  0
 34 35  1  0  0  0  0
 34 65  1  0  0  0  0
 35 36  2  0  0  0  0
 35 66  1  0  0  0  0
 36 37  1  0  0  0  0
 36 67  1  0  0  0  0
 37 38  2  0  0  0  0
 37 68  1  0  0  0  0
 38 69  1  0  0  0  0
M  CHG  2   3   1   8   1
M  END
$$$$
