DUR
 OpenBabel04051920413D

 28 29  0  0  1  0  0  0  0  0999 V2000
  -17.1667   35.0262   -7.7176 N   0  3  0  0  0  0  0  0  0  0  0  0
  -17.8651   34.2284   -6.8133 C   0  0  0  0  0  0  0  0  0  0  0  0
  -17.2689   34.0463   -5.5917 N   0  3  0  0  0  0  0  0  0  0  0  0
  -16.0710   34.5675   -5.1978 C   0  0  0  0  0  0  0  0  0  0  0  0
  -15.3771   35.3913   -6.1956 C   0  0  0  0  0  0  0  0  0  0  0  0
  -15.9522   35.5907   -7.3909 C   0  0  0  0  0  0  0  0  0  0  0  0
  -18.9604   33.7217   -7.0423 O   0  0  0  0  0  0  0  0  0  0  0  0
  -15.5861   34.3734   -4.0927 O   0  0  0  0  0  0  0  0  0  0  0  0
  -17.8453   35.3279   -8.9776 C   0  0  1  0  0  0  0  0  0  0  0  0
  -18.9984   36.2932   -8.7675 C   0  0  0  0  0  0  0  0  0  0  0  0
  -19.1449   36.9726  -10.1023 C   0  0  1  0  0  0  0  0  0  0  0  0
  -17.8052   36.7514  -10.8071 C   0  0  2  0  0  0  0  0  0  0  0  0
  -20.2078   36.3797  -10.8402 O   0  0  0  0  0  0  0  0  0  0  0  0
  -16.9709   35.9817   -9.9190 O   0  0  0  0  0  0  0  0  0  0  0  0
  -17.1127   38.0603  -11.1919 C   0  0  0  0  0  0  0  0  0  0  0  0
  -17.9932   38.9456  -11.8792 O   0  0  0  0  0  0  0  0  0  0  0  0
  -17.7731   33.4905   -4.9204 H   0  0  0  0  0  0  0  0  0  0  0  0
  -14.4282   35.8224   -5.9185 H   0  0  0  0  0  0  0  0  0  0  0  0
  -15.4620   36.2121   -8.1354 H   0  0  0  0  0  0  0  0  0  0  0  0
  -18.1940   34.3909   -9.4310 H   0  0  0  0  0  0  0  0  0  0  0  0
  -18.7175   37.0417   -8.0155 H   0  0  0  0  0  0  0  0  0  0  0  0
  -19.9080   35.7916   -8.4253 H   0  0  0  0  0  0  0  0  0  0  0  0
  -19.4065   38.0218   -9.9453 H   0  0  0  0  0  0  0  0  0  0  0  0
  -17.9566   36.1612  -11.7206 H   0  0  0  0  0  0  0  0  0  0  0  0
  -20.2185   36.7950  -11.7231 H   0  0  0  0  0  0  0  0  0  0  0  0
  -16.2758   37.8464  -11.8655 H   0  0  0  0  0  0  0  0  0  0  0  0
  -16.6893   38.5644  -10.3165 H   0  0  0  0  0  0  0  0  0  0  0  0
  -18.6188   39.3270  -11.2389 H   0  0  0  0  0  0  0  0  0  0  0  0
  1  2  1  0  0  0  0
  1  6  1  0  0  0  0
  1  9  1  0  0  0  0
  2  3  1  0  0  0  0
  2  7  2  0  0  0  0
  3  4  1  0  0  0  0
  3 17  1  0  0  0  0
  4  5  1  0  0  0  0
  4  8  2  0  0  0  0
  5  6  2  0  0  0  0
  5 18  1  0  0  0  0
  6 19  1  0  0  0  0
  9 10  1  0  0  0  0
  9 14  1  0  0  0  0
  9 20  1  6  0  0  0
 10 11  1  0  0  0  0
 10 21  1  0  0  0  0
 10 22  1  0  0  0  0
 11 12  1  0  0  0  0
 11 13  1  0  0  0  0
 11 23  1  1  0  0  0
 12 14  1  0  0  0  0
 12 15  1  0  0  0  0
 12 24  1  6  0  0  0
 13 25  1  0  0  0  0
 15 16  1  0  0  0  0
 15 26  1  0  0  0  0
 15 27  1  0  0  0  0
 16 28  1  0  0  0  0
M  CHG  2   1   1   3   1
M  END
$$$$
