EAM
 OpenBabel04051920413D

 52 55  0  0  1  0  0  0  0  0999 V2000
   20.4089   17.3831  -11.3188 Cl  0  0  0  0  0  0  0  0  0  0  0  0
   20.3884   15.6669  -11.2524 C   0  0  0  0  0  0  0  0  0  0  0  0
   19.7803   15.0340  -10.1684 C   0  0  0  0  0  0  0  0  0  0  0  0
   19.7606   13.6407  -10.1052 C   0  0  0  0  0  0  0  0  0  0  0  0
   20.9719   14.9257  -12.2783 C   0  0  0  0  0  0  0  0  0  0  0  0
   20.9644   13.5403  -12.2242 C   0  0  0  0  0  0  0  0  0  0  0  0
   20.3520   12.9053  -11.1343 C   0  0  0  0  0  0  0  0  0  0  0  0
   20.3517   11.4297  -11.1136 C   0  0  0  0  0  0  0  0  0  0  0  0
   21.4677   10.8536  -11.4017 N   0  0  0  0  0  0  0  0  0  0  0  0
   19.0815   10.7300  -10.7768 C   0  0  0  0  0  0  0  0  0  0  0  0
   19.0351    9.6270   -9.9082 C   0  0  0  0  0  0  0  0  0  0  0  0
   17.8085    9.0403   -9.6142 C   0  0  0  0  0  0  0  0  0  0  0  0
   16.6308    9.5488  -10.1608 C   0  0  0  0  0  0  0  0  0  0  0  0
   16.6610   10.6528  -11.0068 C   0  0  0  0  0  0  0  0  0  0  0  0
   15.5656   11.2263  -11.5896 O   0  0  0  0  0  0  0  0  0  0  0  0
   14.3016   10.7642  -11.1242 C   0  0  0  0  0  0  0  0  0  0  0  0
   17.8856   11.2401  -11.3185 C   0  0  0  0  0  0  0  0  0  0  0  0
   20.2263    9.0472   -9.3945 N   0  3  0  0  0  0  0  0  0  0  0  0
   21.3990    8.8813  -10.1001 C   0  0  0  0  0  0  0  0  0  0  0  0
   22.2715    8.2219   -9.3713 N   0  0  0  0  0  0  0  0  0  0  0  0
   21.6910    7.9688   -8.1565 N   0  0  0  0  0  0  0  0  0  0  0  0
   20.4666    8.4579   -8.1694 C   0  0  0  0  0  0  0  0  0  0  0  0
   19.5330    8.4528   -7.0225 C   0  0  0  0  0  0  0  0  0  0  0  0
   21.5095    9.3938  -11.4852 C   0  0  2  0  0  0  0  0  0  0  0  0
   22.7947    9.0229  -12.2028 C   0  0  0  0  0  0  0  0  0  0  0  0
   22.7028    9.5868  -13.6092 C   0  0  0  0  0  0  0  0  0  0  0  0
   21.6507    9.6874  -14.2365 O   0  0  0  0  0  0  0  0  0  0  0  0
   23.9164    9.9177  -14.1526 N   0  0  0  0  0  0  0  0  0  0  0  0
   24.0302   10.4476  -15.4914 C   0  0  0  0  0  0  0  0  0  0  0  0
   25.3626   10.0266  -16.0545 C   0  0  0  0  0  0  0  0  0  0  0  0
   19.3157   15.6108   -9.3753 H   0  0  0  0  0  0  0  0  0  0  0  0
   19.2991   13.1480   -9.2579 H   0  0  0  0  0  0  0  0  0  0  0  0
   21.4407   15.4205  -13.1259 H   0  0  0  0  0  0  0  0  0  0  0  0
   21.3959   12.9435  -13.0214 H   0  0  0  0  0  0  0  0  0  0  0  0
   17.7320    8.1359   -9.0241 H   0  0  0  0  0  0  0  0  0  0  0  0
   15.7032    9.0410   -9.9221 H   0  0  0  0  0  0  0  0  0  0  0  0
   13.5204   11.3031  -11.6671 H   0  0  0  0  0  0  0  0  0  0  0  0
   14.1828   10.9771  -10.0560 H   0  0  0  0  0  0  0  0  0  0  0  0
   14.1661    9.6963  -11.3267 H   0  0  0  0  0  0  0  0  0  0  0  0
   17.9027   12.0996  -11.9817 H   0  0  0  0  0  0  0  0  0  0  0  0
   19.9799    7.9336   -6.1701 H   0  0  0  0  0  0  0  0  0  0  0  0
   18.6197    7.9098   -7.2624 H   0  0  0  0  0  0  0  0  0  0  0  0
   19.2747    9.4705   -6.7138 H   0  0  0  0  0  0  0  0  0  0  0  0
   20.6708    9.0016  -12.0822 H   0  0  0  0  0  0  0  0  0  0  0  0
   22.9176    7.9365  -12.2788 H   0  0  0  0  0  0  0  0  0  0  0  0
   23.6725    9.4219  -11.6799 H   0  0  0  0  0  0  0  0  0  0  0  0
   24.7473    9.8517  -13.5780 H   0  0  0  0  0  0  0  0  0  0  0  0
   23.9556   11.5390  -15.4483 H   0  0  0  0  0  0  0  0  0  0  0  0
   23.2156   10.0718  -16.1176 H   0  0  0  0  0  0  0  0  0  0  0  0
   25.5062   10.3931  -17.0655 H   0  0  0  0  0  0  0  0  0  0  0  0
   25.4365    8.9292  -16.0551 H   0  0  0  0  0  0  0  0  0  0  0  0
   26.1775   10.4026  -15.4178 H   0  0  0  0  0  0  0  0  0  0  0  0
  1  2  1  0  0  0  0
  2  3  2  0  0  0  0
  2  5  1  0  0  0  0
  3  4  1  0  0  0  0
  3 31  1  0  0  0  0
  4  7  2  0  0  0  0
  4 32  1  0  0  0  0
  5  6  2  0  0  0  0
  5 33  1  0  0  0  0
  6  7  1  0  0  0  0
  6 34  1  0  0  0  0
  7  8  1  0  0  0  0
  8  9  2  0  0  0  0
  8 10  1  0  0  0  0
  9 24  1  0  0  0  0
 10 11  2  0  0  0  0
 10 17  1  0  0  0  0
 11 12  1  0  0  0  0
 11 18  1  0  0  0  0
 12 13  2  0  0  0  0
 12 35  1  0  0  0  0
 13 14  1  0  0  0  0
 13 36  1  0  0  0  0
 14 15  1  0  0  0  0
 14 17  2  0  0  0  0
 15 16  1  0  0  0  0
 16 37  1  0  0  0  0
 16 38  1  0  0  0  0
 16 39  1  0  0  0  0
 17 40  1  0  0  0  0
 18 19  2  0  0  0  0
 18 22  1  0  0  0  0
 19 20  1  0  0  0  0
 19 24  1  0  0  0  0
 20 21  1  0  0  0  0
 21 22  2  0  0  0  0
 22 23  1  0  0  0  0
 23 41  1  0  0  0  0
 23 42  1  0  0  0  0
 23 43  1  0  0  0  0
 24 25  1  0  0  0  0
 24 44  1  6  0  0  0
 25 26  1  0  0  0  0
 25 45  1  0  0  0  0
 25 46  1  0  0  0  0
 26 27  2  0  0  0  0
 26 28  1  0  0  0  0
 28 29  1  0  0  0  0
 28 47  1  0  0  0  0
 29 30  1  0  0  0  0
 29 48  1  0  0  0  0
 29 49  1  0  0  0  0
 30 50  1  0  0  0  0
 30 51  1  0  0  0  0
 30 52  1  0  0  0  0
M  CHG  1  18   1
M  END
$$$$
