EOZ
 OpenBabel04051918013D

 34 34  0  0  0  0  0  0  0  0999 V2000
   36.8464   26.1289   20.8069 O   0  0  0  0  0  0  0  0  0  0  0  0
   38.1222   26.7742   21.3414 P   0  0  0  0  0  0  0  0  0  0  0  0
   39.3793   26.4750   20.5478 O   0  0  0  0  0  0  0  0  0  0  0  0
   38.2789   26.6073   22.8600 O   0  0  0  0  0  0  0  0  0  0  0  0
   37.8438   28.5934   21.1674 C   0  0  0  0  0  0  0  0  0  0  0  0
   37.5453   29.0939   19.7860 C   0  0  0  0  0  0  0  0  0  0  0  0
   36.3755   29.1859   19.3758 O   0  0  0  0  0  0  0  0  0  0  0  0
   38.5070   29.5661   18.9414 N   0  0  0  0  0  0  0  0  0  0  0  0
   39.8839   29.8017   19.0625 C   0  0  0  0  0  0  0  0  0  0  0  0
   40.5820   29.8381   17.8620 C   0  0  0  0  0  0  0  0  0  0  0  0
   40.5898   30.0764   20.2361 C   0  0  0  0  0  0  0  0  0  0  0  0
   41.9848   30.2606   20.2316 C   0  0  0  0  0  0  0  0  0  0  0  0
   42.7085   30.5715   21.5303 C   0  0  0  0  0  0  0  0  0  0  0  0
   43.9855   30.5156   21.5186 O   0  0  0  0  0  0  0  0  0  0  0  0
   42.0262   30.9671   22.5333 O   0  0  0  0  0  0  0  0  0  0  0  0
   42.6711   30.1452   19.0033 C   0  0  0  0  0  0  0  0  0  0  0  0
   41.9750   29.9193   17.8076 C   0  0  0  0  0  0  0  0  0  0  0  0
   42.6861   29.7342   16.5901 N   0  0  0  0  0  0  0  0  0  0  0  0
   42.1169   29.2617   15.3923 C   0  0  0  0  0  0  0  0  0  0  0  0
   40.9084   29.0634   15.2380 O   0  0  0  0  0  0  0  0  0  0  0  0
   43.1367   28.9773   14.3298 C   0  0  0  0  0  0  0  0  0  0  0  0
   42.4588   28.6618   12.6226 P   0  0  0  0  0  0  0  0  0  0  0  0
   41.5458   27.4485   12.7316 O   0  0  0  0  0  0  0  0  0  0  0  0
   43.7353   28.3714   11.8261 O   0  0  0  0  0  0  0  0  0  0  0  0
   41.8018   29.9819   12.2255 O   0  0  0  0  0  0  0  0  0  0  0  0
   38.6828   29.0915   21.6277 H   0  0  0  0  0  0  0  0  0  0  0  0
   36.9907   28.8686   21.7981 H   0  0  0  0  0  0  0  0  0  0  0  0
   38.1499   29.5364   17.9900 H   0  0  0  0  0  0  0  0  0  0  0  0
   39.9996   29.7300   16.9543 H   0  0  0  0  0  0  0  0  0  0  0  0
   40.0987   30.1723   21.1861 H   0  0  0  0  0  0  0  0  0  0  0  0
   43.7522   30.2218   19.0068 H   0  0  0  0  0  0  0  0  0  0  0  0
   43.6921   29.7600   16.6469 H   0  0  0  0  0  0  0  0  0  0  0  0
   43.7236   28.1032   14.6313 H   0  0  0  0  0  0  0  0  0  0  0  0
   43.8073   29.8399   14.2425 H   0  0  0  0  0  0  0  0  0  0  0  0
  1  2  2  0  0  0  0
  2  3  1  0  0  0  0
  2  4  1  0  0  0  0
  2  5  1  0  0  0  0
  5  6  1  0  0  0  0
  5 26  1  0  0  0  0
  5 27  1  0  0  0  0
  6  7  2  0  0  0  0
  6  8  1  0  0  0  0
  8  9  1  0  0  0  0
  8 28  1  0  0  0  0
  9 10  2  0  0  0  0
  9 11  1  0  0  0  0
 10 17  1  0  0  0  0
 10 29  1  0  0  0  0
 11 12  2  0  0  0  0
 11 30  1  0  0  0  0
 12 13  1  0  0  0  0
 12 16  1  0  0  0  0
 13 14  2  0  0  0  0
 13 15  1  0  0  0  0
 16 17  2  0  0  0  0
 16 31  1  0  0  0  0
 17 18  1  0  0  0  0
 18 19  1  0  0  0  0
 18 32  1  0  0  0  0
 19 20  2  0  0  0  0
 19 21  1  0  0  0  0
 21 22  1  0  0  0  0
 21 33  1  0  0  0  0
 21 34  1  0  0  0  0
 22 23  2  0  0  0  0
 22 24  1  0  0  0  0
 22 25  1  0  0  0  0
M  END
$$$$
