ETY
 OpenBabel04051919193D

 19 19  0  0  0  0  0  0  0  0999 V2000
   27.3828   37.4202   43.5009 C   0  0  0  0  0  0  0  0  0  0  0  0
   26.7884   38.5046   42.6158 C   0  0  0  0  0  0  0  0  0  0  0  0
   25.2807   38.4225   42.4972 C   0  0  0  0  0  0  0  0  0  0  0  0
   24.4582   38.9058   43.5257 C   0  0  0  0  0  0  0  0  0  0  0  0
   23.0603   38.8304   43.4168 C   0  0  0  0  0  0  0  0  0  0  0  0
   24.6859   37.8640   41.3521 C   0  0  0  0  0  0  0  0  0  0  0  0
   23.2902   37.7947   41.2364 C   0  0  0  0  0  0  0  0  0  0  0  0
   22.4883   38.2776   42.2661 C   0  0  0  0  0  0  0  0  0  0  0  0
   21.1363   38.2262   42.1870 O   0  0  0  0  0  0  0  0  0  0  0  0
   28.4737   37.5244   43.5515 H   0  0  0  0  0  0  0  0  0  0  0  0
   27.1512   36.4273   43.1037 H   0  0  0  0  0  0  0  0  0  0  0  0
   26.9859   37.4894   44.5182 H   0  0  0  0  0  0  0  0  0  0  0  0
   27.2370   38.4264   41.6181 H   0  0  0  0  0  0  0  0  0  0  0  0
   27.0654   39.4845   43.0228 H   0  0  0  0  0  0  0  0  0  0  0  0
   24.8998   39.3427   44.4182 H   0  0  0  0  0  0  0  0  0  0  0  0
   22.4330   39.2050   44.2134 H   0  0  0  0  0  0  0  0  0  0  0  0
   25.3095   37.4834   40.5460 H   0  0  0  0  0  0  0  0  0  0  0  0
   22.8422   37.3512   40.3490 H   0  0  0  0  0  0  0  0  0  0  0  0
   20.8497   38.6883   41.3811 H   0  0  0  0  0  0  0  0  0  0  0  0
  1  2  1  0  0  0  0
  1 10  1  0  0  0  0
  1 11  1  0  0  0  0
  1 12  1  0  0  0  0
  2  3  1  0  0  0  0
  2 13  1  0  0  0  0
  2 14  1  0  0  0  0
  3  4  2  0  0  0  0
  3  6  1  0  0  0  0
  4  5  1  0  0  0  0
  4 15  1  0  0  0  0
  5  8  2  0  0  0  0
  5 16  1  0  0  0  0
  6  7  2  0  0  0  0
  6 17  1  0  0  0  0
  7  8  1  0  0  0  0
  7 18  1  0  0  0  0
  8  9  1  0  0  0  0
  9 19  1  0  0  0  0
M  END
$$$$
