F34
 OpenBabel04051919553D

 31 31  0  0  1  0  0  0  0  0999 V2000
  -16.1437    3.3514   -3.7396 O   0  0  0  0  0  0  0  0  0  0  0  0
  -14.9848    3.0365   -3.9922 C   0  0  0  0  0  0  0  0  0  0  0  0
  -14.6130    2.2218   -5.2030 C   0  0  0  0  0  0  0  0  0  0  0  0
  -13.9445    3.4356   -3.1943 N   0  0  0  0  0  0  0  0  0  0  0  0
  -14.1029    3.9768   -1.8226 C   0  0  2  0  0  0  0  0  0  0  0  0
  -14.7052    2.9146   -0.8716 C   0  0  1  0  0  0  0  0  0  0  0  0
  -13.6102    2.0567   -0.4907 O   0  0  0  0  0  0  0  0  0  0  0  0
  -15.3721    3.4364    0.4223 C   0  0  2  0  0  0  0  0  0  0  0  0
  -15.6541    2.2739    1.2250 O   0  0  0  0  0  0  0  0  0  0  0  0
  -16.6493    4.3125    0.2574 C   0  0  2  0  0  0  0  0  0  0  0  0
  -17.7692    3.7924    0.9826 O   0  0  0  0  0  0  0  0  0  0  0  0
  -17.1579    4.5273   -1.1732 C   0  0  0  0  0  0  0  0  0  0  0  0
  -16.2482    5.2772   -2.0811 N   0  3  0  0  0  0  0  0  0  0  0  0
  -14.7991    5.3477   -1.7784 C   0  0  0  0  0  0  0  0  0  0  0  0
  -13.5307    2.1854   -5.3472 H   0  0  0  0  0  0  0  0  0  0  0  0
  -15.0678    2.6761   -6.0860 H   0  0  0  0  0  0  0  0  0  0  0  0
  -14.9882    1.2022   -5.0788 H   0  0  0  0  0  0  0  0  0  0  0  0
  -13.0246    3.0407   -3.4065 H   0  0  0  0  0  0  0  0  0  0  0  0
  -13.0672    4.1626   -1.5104 H   0  0  0  0  0  0  0  0  0  0  0  0
  -15.4103    2.2579   -1.3945 H   0  0  0  0  0  0  0  0  0  0  0  0
  -13.9697    1.4471    0.1882 H   0  0  0  0  0  0  0  0  0  0  0  0
  -14.6206    4.0078    0.9818 H   0  0  0  0  0  0  0  0  0  0  0  0
  -15.7264    2.5356    2.1605 H   0  0  0  0  0  0  0  0  0  0  0  0
  -16.4438    5.2943    0.6979 H   0  0  0  0  0  0  0  0  0  0  0  0
  -17.4965    3.5234    1.8775 H   0  0  0  0  0  0  0  0  0  0  0  0
  -18.0933    5.1005   -1.1554 H   0  0  0  0  0  0  0  0  0  0  0  0
  -17.4053    3.5701   -1.6448 H   0  0  0  0  0  0  0  0  0  0  0  0
  -16.3433    4.7844   -2.9989 H   0  0  0  0  0  0  0  0  0  0  0  0
  -14.3615    6.0223   -2.5226 H   0  0  0  0  0  0  0  0  0  0  0  0
  -14.6887    5.8283   -0.8005 H   0  0  0  0  0  0  0  0  0  0  0  0
  -16.6246    6.2167   -2.2606 H   0  0  0  0  0  0  0  0  0  0  0  0
  1  2  2  0  0  0  0
  2  3  1  0  0  0  0
  2  4  1  0  0  0  0
  3 15  1  0  0  0  0
  3 16  1  0  0  0  0
  3 17  1  0  0  0  0
  4  5  1  0  0  0  0
  4 18  1  0  0  0  0
  5  6  1  0  0  0  0
  5 14  1  0  0  0  0
  5 19  1  1  0  0  0
  6  7  1  0  0  0  0
  6  8  1  0  0  0  0
  6 20  1  6  0  0  0
  7 21  1  0  0  0  0
  8  9  1  0  0  0  0
  8 10  1  0  0  0  0
  8 22  1  1  0  0  0
  9 23  1  0  0  0  0
 10 11  1  0  0  0  0
 10 12  1  0  0  0  0
 10 24  1  1  0  0  0
 11 25  1  0  0  0  0
 12 13  1  0  0  0  0
 12 26  1  0  0  0  0
 12 27  1  0  0  0  0
 13 14  1  0  0  0  0
 13 28  1  0  0  0  0
 13 31  1  0  0  0  0
 14 29  1  0  0  0  0
 14 30  1  0  0  0  0
M  CHG  1  13   1
M  END
$$$$
