FA4
 OpenBabel04051917393D

 77 77  0  0  1  0  0  0  0  0999 V2000
  -40.6992   20.4291  -12.0430 C   0  0  0  0  0  0  0  0  0  0  0  0
  -40.7345   21.7725  -12.4198 C   0  0  0  0  0  0  0  0  0  0  0  0
  -41.8484   22.3230  -13.0791 C   0  0  0  0  0  0  0  0  0  0  0  0
  -42.9650   21.4942  -13.3527 C   0  0  0  0  0  0  0  0  0  0  0  0
  -42.8931   20.1332  -12.9864 C   0  0  0  0  0  0  0  0  0  0  0  0
  -41.7803   19.6086  -12.3362 C   0  0  0  0  0  0  0  0  0  0  0  0
  -41.7490   23.7895  -13.4889 C   0  0  0  0  0  0  0  0  0  0  0  0
  -41.1147   23.9701  -14.8753 C   0  0  0  0  0  0  0  0  0  0  0  0
  -41.1375   25.4098  -15.4150 C   0  0  0  0  0  0  0  0  0  0  0  0
  -42.5527   25.9692  -15.5812 C   0  0  0  0  0  0  0  0  0  0  0  0
  -42.6239   27.1892  -16.5138 C   0  0  0  0  0  0  0  0  0  0  0  0
  -43.8985   27.9921  -16.2225 C   0  0  0  0  0  0  0  0  0  0  0  0
  -44.0913   29.1994  -17.1466 C   0  0  0  0  0  0  0  0  0  0  0  0
  -43.5799   30.4998  -16.5148 C   0  0  0  0  0  0  0  0  0  0  0  0
  -43.8350   31.7366  -17.3751 C   0  0  0  0  0  0  0  0  0  0  0  0
  -43.2002   31.6213  -18.7484 C   0  0  0  0  0  0  0  0  0  0  0  0
  -44.1013   31.3740  -19.7543 N   0  0  0  0  0  0  0  0  0  0  0  0
  -43.7219   31.2220  -21.1638 C   0  0  2  0  0  0  0  0  0  0  0  0
  -41.9900   31.6673  -18.9465 O   0  0  0  0  0  0  0  0  0  0  0  0
  -44.8998   31.7028  -22.0321 C   0  0  0  0  0  0  0  0  0  0  0  0
  -43.3730   29.7517  -21.4748 C   0  0  0  0  0  0  0  0  0  0  0  0
  -42.2906   29.2728  -20.7689 N   0  0  0  0  0  0  0  0  0  0  0  0
  -44.5184   32.1702  -23.4482 C   0  0  0  0  0  0  0  0  0  0  0  0
  -44.9459   31.2153  -24.5746 C   0  0  0  0  0  0  0  0  0  0  0  0
  -45.3350   31.9630  -25.8575 C   0  0  0  0  0  0  0  0  0  0  0  0
  -44.3189   31.7608  -26.9138 N   0  3  0  0  0  0  0  0  0  0  0  0
  -44.1753   21.9653  -14.1057 C   0  0  0  0  0  0  0  0  0  0  0  0
  -45.4184   21.4621  -13.4783 N   0  0  0  0  0  0  0  0  0  0  0  0
  -46.1468   22.1391  -12.5778 C   0  0  0  0  0  0  0  0  0  0  0  0
  -45.7001   23.2629  -12.0109 N   0  0  0  0  0  0  0  0  0  0  0  0
  -47.3644   21.6999  -12.2468 N   0  0  0  0  0  0  0  0  0  0  0  0
  -41.9205   27.9367  -21.0258 O   0  0  0  0  0  0  0  0  0  0  0  0
  -43.9869   29.1047  -22.3216 O   0  0  0  0  0  0  0  0  0  0  0  0
  -39.8225   20.0228  -11.5445 H   0  0  0  0  0  0  0  0  0  0  0  0
  -39.8576   22.3863  -12.2050 H   0  0  0  0  0  0  0  0  0  0  0  0
  -43.7005   19.4477  -13.2279 H   0  0  0  0  0  0  0  0  0  0  0  0
  -41.7438   18.5533  -12.0626 H   0  0  0  0  0  0  0  0  0  0  0  0
  -41.1471   24.3293  -12.7460 H   0  0  0  0  0  0  0  0  0  0  0  0
  -42.7361   24.2529  -13.4334 H   0  0  0  0  0  0  0  0  0  0  0  0
  -41.6136   23.3150  -15.6025 H   0  0  0  0  0  0  0  0  0  0  0  0
  -40.0684   23.6401  -14.8334 H   0  0  0  0  0  0  0  0  0  0  0  0
  -40.6181   25.4226  -16.3805 H   0  0  0  0  0  0  0  0  0  0  0  0
  -40.5679   26.0655  -14.7436 H   0  0  0  0  0  0  0  0  0  0  0  0
  -42.9332   26.2447  -14.5912 H   0  0  0  0  0  0  0  0  0  0  0  0
  -43.2184   25.1922  -15.9761 H   0  0  0  0  0  0  0  0  0  0  0  0
  -42.6361   26.8400  -17.5553 H   0  0  0  0  0  0  0  0  0  0  0  0
  -41.7408   27.8271  -16.3983 H   0  0  0  0  0  0  0  0  0  0  0  0
  -43.8873   28.3209  -15.1763 H   0  0  0  0  0  0  0  0  0  0  0  0
  -44.7614   27.3273  -16.3350 H   0  0  0  0  0  0  0  0  0  0  0  0
  -45.1637   29.3133  -17.3499 H   0  0  0  0  0  0  0  0  0  0  0  0
  -43.6040   29.0164  -18.1097 H   0  0  0  0  0  0  0  0  0  0  0  0
  -42.5090   30.4115  -16.3010 H   0  0  0  0  0  0  0  0  0  0  0  0
  -44.0873   30.6513  -15.5529 H   0  0  0  0  0  0  0  0  0  0  0  0
  -43.4311   32.6293  -16.8826 H   0  0  0  0  0  0  0  0  0  0  0  0
  -44.9147   31.9056  -17.4734 H   0  0  0  0  0  0  0  0  0  0  0  0
  -45.0525   31.1376  -19.4958 H   0  0  0  0  0  0  0  0  0  0  0  0
  -42.8304   31.8337  -21.3495 H   0  0  0  0  0  0  0  0  0  0  0  0
  -45.3570   32.5664  -21.5291 H   0  0  0  0  0  0  0  0  0  0  0  0
  -45.6911   30.9427  -22.0627 H   0  0  0  0  0  0  0  0  0  0  0  0
  -41.7420   29.8423  -20.1220 H   0  0  0  0  0  0  0  0  0  0  0  0
  -43.4440   32.3709  -23.5253 H   0  0  0  0  0  0  0  0  0  0  0  0
  -45.0196   33.1344  -23.5957 H   0  0  0  0  0  0  0  0  0  0  0  0
  -45.8174   30.6317  -24.2569 H   0  0  0  0  0  0  0  0  0  0  0  0
  -44.1420   30.4905  -24.7642 H   0  0  0  0  0  0  0  0  0  0  0  0
  -45.4296   33.0444  -25.7187 H   0  0  0  0  0  0  0  0  0  0  0  0
  -46.2742   31.5766  -26.2632 H   0  0  0  0  0  0  0  0  0  0  0  0
  -44.5732   32.2589  -27.7707 H   0  0  0  0  0  0  0  0  0  0  0  0
  -43.3901   32.0953  -26.6283 H   0  0  0  0  0  0  0  0  0  0  0  0
  -44.1511   21.5804  -15.1326 H   0  0  0  0  0  0  0  0  0  0  0  0
  -44.2595   23.0494  -14.1885 H   0  0  0  0  0  0  0  0  0  0  0  0
  -45.7953   20.5923  -13.8255 H   0  0  0  0  0  0  0  0  0  0  0  0
  -46.2527   23.7771  -11.3378 H   0  0  0  0  0  0  0  0  0  0  0  0
  -47.7733   20.8666  -12.6509 H   0  0  0  0  0  0  0  0  0  0  0  0
  -47.9393   22.2022  -11.5784 H   0  0  0  0  0  0  0  0  0  0  0  0
  -41.1073   27.8096  -20.5069 H   0  0  0  0  0  0  0  0  0  0  0  0
  -44.2251   30.7652  -27.1531 H   0  0  0  0  0  0  0  0  0  0  0  0
  -44.7438   23.5643  -12.1442 H   0  0  0  0  0  0  0  0  0  0  0  0
  1  2  2  0  0  0  0
  1  6  1  0  0  0  0
  1 34  1  0  0  0  0
  2  3  1  0  0  0  0
  2 35  1  0  0  0  0
  3  4  2  0  0  0  0
  3  7  1  0  0  0  0
  4  5  1  0  0  0  0
  4 27  1  0  0  0  0
  5  6  2  0  0  0  0
  5 36  1  0  0  0  0
  6 37  1  0  0  0  0
  7  8  1  0  0  0  0
  7 38  1  0  0  0  0
  7 39  1  0  0  0  0
  8  9  1  0  0  0  0
  8 40  1  0  0  0  0
  8 41  1  0  0  0  0
  9 10  1  0  0  0  0
  9 42  1  0  0  0  0
  9 43  1  0  0  0  0
 10 11  1  0  0  0  0
 10 44  1  0  0  0  0
 10 45  1  0  0  0  0
 11 12  1  0  0  0  0
 11 46  1  0  0  0  0
 11 47  1  0  0  0  0
 12 13  1  0  0  0  0
 12 48  1  0  0  0  0
 12 49  1  0  0  0  0
 13 14  1  0  0  0  0
 13 50  1  0  0  0  0
 13 51  1  0  0  0  0
 14 15  1  0  0  0  0
 14 52  1  0  0  0  0
 14 53  1  0  0  0  0
 15 16  1  0  0  0  0
 15 54  1  0  0  0  0
 15 55  1  0  0  0  0
 16 17  1  0  0  0  0
 16 19  2  0  0  0  0
 17 18  1  0  0  0  0
 17 56  1  0  0  0  0
 18 20  1  0  0  0  0
 18 21  1  0  0  0  0
 18 57  1  6  0  0  0
 20 23  1  0  0  0  0
 20 58  1  0  0  0  0
 20 59  1  0  0  0  0
 21 22  1  0  0  0  0
 21 33  2  0  0  0  0
 22 32  1  0  0  0  0
 22 60  1  0  0  0  0
 23 24  1  0  0  0  0
 23 61  1  0  0  0  0
 23 62  1  0  0  0  0
 24 25  1  0  0  0  0
 24 63  1  0  0  0  0
 24 64  1  0  0  0  0
 25 26  1  0  0  0  0
 25 65  1  0  0  0  0
 25 66  1  0  0  0  0
 26 67  1  0  0  0  0
 26 68  1  0  0  0  0
 26 76  1  0  0  0  0
 27 28  1  0  0  0  0
 27 69  1  0  0  0  0
 27 70  1  0  0  0  0
 28 29  1  0  0  0  0
 28 71  1  0  0  0  0
 29 30  2  0  0  0  0
 29 31  1  0  0  0  0
 30 72  1  0  0  0  0
 30 77  1  0  0  0  0
 31 73  1  0  0  0  0
 31 74  1  0  0  0  0
 32 75  1  0  0  0  0
M  CHG  1  26   1
M  END
$$$$
