FHN
 OpenBabel04051920083D

 29 29  0  0  1  0  0  0  0  0999 V2000
  -27.7321    0.9632   29.3275 O   0  0  0  0  0  0  0  0  0  0  0  0
  -27.0530    2.1185   28.8578 C   0  0  1  0  0  0  0  0  0  0  0  0
  -25.6516    1.7277   28.3434 C   0  0  2  0  0  0  0  0  0  0  0  0
  -24.9227    1.1610   29.4397 O   0  0  0  0  0  0  0  0  0  0  0  0
  -24.8996    2.9532   27.8186 C   0  0  2  0  0  0  0  0  0  0  0  0
  -24.7302    3.8955   28.8862 O   0  0  0  0  0  0  0  0  0  0  0  0
  -25.6905    3.6191   26.6910 C   0  0  2  0  0  0  0  0  0  0  0  0
  -25.0478    4.9346   26.2221 C   0  0  0  0  0  0  0  0  0  0  0  0
  -25.9139    5.4929   25.2316 O   0  0  0  0  0  0  0  0  0  0  0  0
  -27.0862    3.9550   27.1688 N   0  3  0  0  0  0  0  0  0  0  0  0
  -27.8769    2.8090   27.7491 C   0  0  1  0  0  0  0  0  0  0  0  0
  -28.3295    1.8537   26.6299 C   0  0  0  0  0  0  0  0  0  0  0  0
  -29.0792    2.5913   25.6628 O   0  0  0  0  0  0  0  0  0  0  0  0
  -27.1575    0.5645   30.0225 H   0  0  0  0  0  0  0  0  0  0  0  0
  -26.9584    2.7994   29.7072 H   0  0  0  0  0  0  0  0  0  0  0  0
  -25.7319    0.9517   27.5712 H   0  0  0  0  0  0  0  0  0  0  0  0
  -24.1062    0.7486   29.0944 H   0  0  0  0  0  0  0  0  0  0  0  0
  -23.8985    2.6697   27.4741 H   0  0  0  0  0  0  0  0  0  0  0  0
  -24.2441    3.4337   29.6027 H   0  0  0  0  0  0  0  0  0  0  0  0
  -25.8174    2.9469   25.8370 H   0  0  0  0  0  0  0  0  0  0  0  0
  -24.0624    4.7570   25.7932 H   0  0  0  0  0  0  0  0  0  0  0  0
  -24.9652    5.6580   27.0411 H   0  0  0  0  0  0  0  0  0  0  0  0
  -25.4703    6.2839   24.8772 H   0  0  0  0  0  0  0  0  0  0  0  0
  -27.0111    4.6963   27.8862 H   0  0  0  0  0  0  0  0  0  0  0  0
  -28.7763    3.2648   28.1844 H   0  0  0  0  0  0  0  0  0  0  0  0
  -28.9830    1.0729   27.0334 H   0  0  0  0  0  0  0  0  0  0  0  0
  -27.4950    1.3560   26.1291 H   0  0  0  0  0  0  0  0  0  0  0  0
  -28.4857    3.0561   25.0490 H   0  0  0  0  0  0  0  0  0  0  0  0
  -27.5963    4.4055   26.3999 H   0  0  0  0  0  0  0  0  0  0  0  0
  1  2  1  0  0  0  0
  1 14  1  0  0  0  0
  2  3  1  0  0  0  0
  2 11  1  0  0  0  0
  2 15  1  1  0  0  0
  3  4  1  0  0  0  0
  3  5  1  0  0  0  0
  3 16  1  6  0  0  0
  4 17  1  0  0  0  0
  5  6  1  0  0  0  0
  5  7  1  0  0  0  0
  5 18  1  6  0  0  0
  6 19  1  0  0  0  0
  7  8  1  0  0  0  0
  7 10  1  0  0  0  0
  7 20  1  6  0  0  0
  8  9  1  0  0  0  0
  8 21  1  0  0  0  0
  8 22  1  0  0  0  0
  9 23  1  0  0  0  0
 10 11  1  0  0  0  0
 10 24  1  0  0  0  0
 10 29  1  0  0  0  0
 11 12  1  0  0  0  0
 11 25  1  1  0  0  0
 12 13  1  0  0  0  0
 12 26  1  0  0  0  0
 12 27  1  0  0  0  0
 13 28  1  0  0  0  0
M  CHG  1  10   1
M  END
$$$$
