FLC
 OpenBabel04051917263D

 18 17  0  0  1  0  0  0  0  0999 V2000
   87.9799   -2.3415   42.5094 C   0  0  0  0  0  0  0  0  0  0  0  0
   87.3339   -2.3698   41.1258 C   0  0  0  0  0  0  0  0  0  0  0  0
   85.8128   -2.1806   41.0781 C   0  0  1  0  0  0  0  0  0  0  0  0
   85.1216   -2.6354   42.4423 C   0  0  0  0  0  0  0  0  0  0  0  0
   85.4042   -0.7598   40.6694 C   0  0  0  0  0  0  0  0  0  0  0  0
   84.0868   -0.5946   39.8975 C   0  0  0  0  0  0  0  0  0  0  0  0
   88.8039   -3.2860   42.7379 O   0  0  0  0  0  0  0  0  0  0  0  0
   87.7806   -1.3074   43.2043 O   0  0  0  0  0  0  0  0  0  0  0  0
   84.5789   -1.7775   43.1905 O   0  0  0  0  0  0  0  0  0  0  0  0
   85.1347   -3.9227   42.6024 O   0  0  0  0  0  0  0  0  0  0  0  0
   83.3618    0.3947   40.2672 O   0  0  0  0  0  0  0  0  0  0  0  0
   83.8883   -1.2841   38.8626 O   0  0  0  0  0  0  0  0  0  0  0  0
   85.4531   -3.1560   40.0266 O   0  0  0  0  0  0  0  0  0  0  0  0
   87.6252   -3.3168   40.6344 H   0  0  0  0  0  0  0  0  0  0  0  0
   87.8439   -1.6110   40.5063 H   0  0  0  0  0  0  0  0  0  0  0  0
   86.1871   -0.2982   40.0501 H   0  0  0  0  0  0  0  0  0  0  0  0
   85.3781   -0.1222   41.5666 H   0  0  0  0  0  0  0  0  0  0  0  0
   85.5719   -3.9987   40.4960 H   0  0  0  0  0  0  0  0  0  0  0  0
  1  2  1  0  0  0  0
  1  7  2  0  0  0  0
  1  8  1  0  0  0  0
  2 14  1  0  0  0  0
  2 15  1  0  0  0  0
  3  2  1  1  0  0  0
  3  4  1  0  0  0  0
  3  5  1  0  0  0  0
  3 13  1  0  0  0  0
  4  9  2  0  0  0  0
  4 10  1  0  0  0  0
  5  6  1  0  0  0  0
  5 16  1  0  0  0  0
  5 17  1  0  0  0  0
  6 11  2  0  0  0  0
  6 12  1  0  0  0  0
 13 18  1  0  0  0  0
M  END
$$$$
