FRP
 OpenBabel04051917563D

 83 85  0  0  1  0  0  0  0  0999 V2000
    6.4344   -3.4437   47.6307 C   0  0  0  0  0  0  0  0  0  0  0  0
    5.2035   -3.2123   48.2434 C   0  0  0  0  0  0  0  0  0  0  0  0
    6.2863   -3.1231   50.3942 C   0  0  0  0  0  0  0  0  0  0  0  0
   14.7336   -6.6687   50.3865 C   0  0  0  0  0  0  0  0  0  0  0  0
   14.9588   -6.5113   49.0323 C   0  0  0  0  0  0  0  0  0  0  0  0
   15.8697   -8.7421   48.9100 C   0  0  0  0  0  0  0  0  0  0  0  0
   15.6425   -8.8933   50.2760 C   0  0  0  0  0  0  0  0  0  0  0  0
   15.0742   -7.8641   51.0070 C   0  0  0  0  0  0  0  0  0  0  0  0
   11.3797   -3.1697   47.4742 C   0  0  2  0  0  0  0  0  0  0  0  0
    8.9148   -3.7834   47.7059 C   0  0  0  0  0  0  0  0  0  0  0  0
   14.0962   -4.1930   48.8386 C   0  0  0  0  0  0  0  0  0  0  0  0
   10.1033   -3.0217   48.3177 C   0  0  2  0  0  0  0  0  0  0  0  0
    9.9909   -0.8557   49.5087 C   0  0  0  0  0  0  0  0  0  0  0  0
    4.8435    2.9975   50.9855 C   0  0  0  0  0  0  0  0  0  0  0  0
    4.9746    0.6061   45.3413 C   0  0  0  0  0  0  0  0  0  0  0  0
    4.1574    1.8900   50.2280 C   0  0  0  0  0  0  0  0  0  0  0  0
    4.0477    0.7482   46.5236 C   0  0  0  0  0  0  0  0  0  0  0  0
    4.2860    2.0486   47.2580 C   0  0  0  0  0  0  0  0  0  0  0  0
    5.1344    1.0957   49.3865 C   0  0  0  0  0  0  0  0  0  0  0  0
    6.6385    2.3982   47.8340 C   0  0  0  0  0  0  0  0  0  0  0  0
    8.3529    0.8487   48.7132 C   0  0  0  0  0  0  0  0  0  0  0  0
    9.4749    0.5518   49.4773 C   0  0  0  0  0  0  0  0  0  0  0  0
   10.0890    1.5556   50.2337 C   0  0  0  0  0  0  0  0  0  0  0  0
    7.8186    2.1338   48.7028 C   0  0  0  0  0  0  0  0  0  0  0  0
    8.4361    3.1511   49.4359 C   0  0  0  0  0  0  0  0  0  0  0  0
    9.5665    2.8543   50.2028 C   0  0  0  0  0  0  0  0  0  0  0  0
   15.9716  -10.0460   50.8747 F   0  0  0  0  0  0  0  0  0  0  0  0
   15.5243   -7.5438   48.2853 C   0  0  0  0  0  0  0  0  0  0  0  0
   14.6460   -5.3433   48.3205 N   0  0  0  0  0  0  0  0  0  0  0  0
   13.7752   -4.0246   50.0062 O   0  0  0  0  0  0  0  0  0  0  0  0
   13.8928   -3.1220   47.8024 C   0  0  2  0  0  0  0  0  0  0  0  0
   15.0471   -2.1415   47.9076 C   0  0  0  0  0  0  0  0  0  0  0  0
   12.5693   -2.4045   48.0475 C   0  0  0  0  0  0  0  0  0  0  0  0
   11.1139   -2.6342   46.0987 N   0  3  0  0  0  0  0  0  0  0  0  0
    7.6035   -3.5196   48.3927 C   0  0  0  0  0  0  0  0  0  0  0  0
    7.5152   -3.3659   49.7814 C   0  0  0  0  0  0  0  0  0  0  0  0
    5.1274   -3.0512   49.6252 C   0  0  0  0  0  0  0  0  0  0  0  0
    9.7345   -1.6056   48.3850 N   0  0  0  0  0  0  0  0  0  0  0  0
   10.6073   -1.2644   50.4483 O   0  0  0  0  0  0  0  0  0  0  0  0
    6.8240    3.0264   46.8064 O   0  0  0  0  0  0  0  0  0  0  0  0
    5.4132    1.8518   48.1746 N   0  0  0  0  0  0  0  0  0  0  0  0
    6.4754   -3.5694   46.5522 H   0  0  0  0  0  0  0  0  0  0  0  0
    4.2982   -3.1614   47.6425 H   0  0  0  0  0  0  0  0  0  0  0  0
    6.2315   -2.9981   51.4737 H   0  0  0  0  0  0  0  0  0  0  0  0
   14.2965   -5.8791   50.9889 H   0  0  0  0  0  0  0  0  0  0  0  0
   16.3153   -9.5457   48.3366 H   0  0  0  0  0  0  0  0  0  0  0  0
   14.9031   -7.9918   52.0768 H   0  0  0  0  0  0  0  0  0  0  0  0
   11.6247   -4.2232   47.3340 H   0  0  0  0  0  0  0  0  0  0  0  0
    9.1267   -4.8558   47.7180 H   0  0  0  0  0  0  0  0  0  0  0  0
    8.8030   -3.4689   46.6600 H   0  0  0  0  0  0  0  0  0  0  0  0
   10.3339   -3.4281   49.3052 H   0  0  0  0  0  0  0  0  0  0  0  0
    4.1055    3.5574   51.5664 H   0  0  0  0  0  0  0  0  0  0  0  0
    5.3464    3.6894   50.3017 H   0  0  0  0  0  0  0  0  0  0  0  0
    5.5830    2.5712   51.6670 H   0  0  0  0  0  0  0  0  0  0  0  0
    4.7911   -0.3494   44.8434 H   0  0  0  0  0  0  0  0  0  0  0  0
    6.0209    0.6363   45.6604 H   0  0  0  0  0  0  0  0  0  0  0  0
    4.7982    1.4171   44.6292 H   0  0  0  0  0  0  0  0  0  0  0  0
    3.3927    2.3512   49.6048 H   0  0  0  0  0  0  0  0  0  0  0  0
    3.6440    1.2234   50.9162 H   0  0  0  0  0  0  0  0  0  0  0  0
    4.2242   -0.0921   47.1980 H   0  0  0  0  0  0  0  0  0  0  0  0
    3.0112    0.7009   46.1864 H   0  0  0  0  0  0  0  0  0  0  0  0
    3.3872    2.3279   47.8127 H   0  0  0  0  0  0  0  0  0  0  0  0
    4.4725    2.8834   46.5678 H   0  0  0  0  0  0  0  0  0  0  0  0
    4.7053    0.1262   49.1103 H   0  0  0  0  0  0  0  0  0  0  0  0
    6.0502    0.8978   49.9390 H   0  0  0  0  0  0  0  0  0  0  0  0
    7.8527    0.0769   48.1380 H   0  0  0  0  0  0  0  0  0  0  0  0
   10.9661    1.3368   50.8388 H   0  0  0  0  0  0  0  0  0  0  0  0
    8.0395    4.1634   49.4150 H   0  0  0  0  0  0  0  0  0  0  0  0
   10.0474    3.6437   50.7884 H   0  0  0  0  0  0  0  0  0  0  0  0
   15.7040   -7.4283   47.2235 H   0  0  0  0  0  0  0  0  0  0  0  0
   14.8686   -5.3496   47.3448 H   0  0  0  0  0  0  0  0  0  0  0  0
   13.8888   -3.5708   46.8031 H   0  0  0  0  0  0  0  0  0  0  0  0
   14.9154   -1.3355   47.1798 H   0  0  0  0  0  0  0  0  0  0  0  0
   15.9974   -2.6450   47.7051 H   0  0  0  0  0  0  0  0  0  0  0  0
   15.0942   -1.7018   48.9107 H   0  0  0  0  0  0  0  0  0  0  0  0
   12.4119   -2.2988   49.1211 H   0  0  0  0  0  0  0  0  0  0  0  0
   12.6235   -1.3998   47.6085 H   0  0  0  0  0  0  0  0  0  0  0  0
   11.9464   -2.7034   45.5056 H   0  0  0  0  0  0  0  0  0  0  0  0
   10.3627   -3.1629   45.6411 H   0  0  0  0  0  0  0  0  0  0  0  0
    8.4066   -3.4230   50.4026 H   0  0  0  0  0  0  0  0  0  0  0  0
    4.1665   -2.8743   50.1023 H   0  0  0  0  0  0  0  0  0  0  0  0
    9.1926   -1.2157   47.6408 H   0  0  0  0  0  0  0  0  0  0  0  0
   10.8284   -1.6465   46.1501 H   0  0  0  0  0  0  0  0  0  0  0  0
  1  2  2  0  0  0  0
  1 35  1  0  0  0  0
  1 42  1  0  0  0  0
  2 37  1  0  0  0  0
  2 43  1  0  0  0  0
  3 36  1  0  0  0  0
  3 37  2  0  0  0  0
  3 44  1  0  0  0  0
  4  5  2  0  0  0  0
  4  8  1  0  0  0  0
  4 45  1  0  0  0  0
  5 28  1  0  0  0  0
  5 29  1  0  0  0  0
  6  7  1  0  0  0  0
  6 28  2  0  0  0  0
  6 46  1  0  0  0  0
  7  8  2  0  0  0  0
  7 27  1  0  0  0  0
  8 47  1  0  0  0  0
  9 12  1  0  0  0  0
  9 33  1  0  0  0  0
  9 34  1  0  0  0  0
  9 48  1  6  0  0  0
 10 12  1  0  0  0  0
 10 35  1  0  0  0  0
 10 49  1  0  0  0  0
 10 50  1  0  0  0  0
 11 29  1  0  0  0  0
 11 30  2  0  0  0  0
 11 31  1  0  0  0  0
 12 38  1  0  0  0  0
 12 51  1  1  0  0  0
 13 22  1  0  0  0  0
 13 38  1  0  0  0  0
 13 39  2  0  0  0  0
 14 16  1  0  0  0  0
 14 52  1  0  0  0  0
 14 53  1  0  0  0  0
 14 54  1  0  0  0  0
 15 17  1  0  0  0  0
 15 55  1  0  0  0  0
 15 56  1  0  0  0  0
 15 57  1  0  0  0  0
 16 19  1  0  0  0  0
 16 58  1  0  0  0  0
 16 59  1  0  0  0  0
 17 18  1  0  0  0  0
 17 60  1  0  0  0  0
 17 61  1  0  0  0  0
 18 41  1  0  0  0  0
 18 62  1  0  0  0  0
 18 63  1  0  0  0  0
 19 41  1  0  0  0  0
 19 64  1  0  0  0  0
 19 65  1  0  0  0  0
 20 24  1  0  0  0  0
 20 40  2  0  0  0  0
 20 41  1  0  0  0  0
 21 22  2  0  0  0  0
 21 24  1  0  0  0  0
 21 66  1  0  0  0  0
 22 23  1  0  0  0  0
 23 26  2  0  0  0  0
 23 67  1  0  0  0  0
 24 25  2  0  0  0  0
 25 26  1  0  0  0  0
 25 68  1  0  0  0  0
 26 69  1  0  0  0  0
 28 70  1  0  0  0  0
 29 71  1  0  0  0  0
 31 32  1  0  0  0  0
 31 33  1  0  0  0  0
 31 72  1  6  0  0  0
 32 73  1  0  0  0  0
 32 74  1  0  0  0  0
 32 75  1  0  0  0  0
 33 76  1  0  0  0  0
 33 77  1  0  0  0  0
 34 78  1  0  0  0  0
 34 79  1  0  0  0  0
 34 83  1  0  0  0  0
 35 36  2  0  0  0  0
 36 80  1  0  0  0  0
 37 81  1  0  0  0  0
 38 82  1  0  0  0  0
M  CHG  1  34   1
M  END
$$$$
