FSG
 OpenBabel04051918503D

 13 12  0  0  1  0  0  0  0  0999 V2000
   26.6575   24.4513  -16.9753 O   0  0  0  0  0  0  0  0  0  0  0  0
   26.4673   25.8497  -16.3766 P   0  0  0  0  0  0  0  0  0  0  0  0
   27.7696   26.5997  -16.1513 O   0  0  0  0  0  0  0  0  0  0  0  0
   25.4928   25.8870  -15.1979 O   0  0  0  0  0  0  0  0  0  0  0  0
   25.6155   26.7431  -17.7686 C   0  0  2  0  0  0  0  0  0  0  0  0
   25.9260   28.0617  -17.6098 F   0  0  0  0  0  0  0  0  0  0  0  0
   24.1365   26.5043  -17.8179 C   0  0  0  0  0  0  0  0  0  0  0  0
   23.2628   27.1490  -17.1919 O   0  0  0  0  0  0  0  0  0  0  0  0
   23.7342   25.6473  -18.8276 N   0  0  0  0  0  0  0  0  0  0  0  0
   22.3652   25.3298  -18.9564 O   0  0  0  0  0  0  0  0  0  0  0  0
   26.0974   26.4208  -18.7126 H   0  0  0  0  0  0  0  0  0  0  0  0
   24.4121   25.0700  -19.3192 H   0  0  0  0  0  0  0  0  0  0  0  0
   21.9679   26.2249  -18.9292 H   0  0  0  0  0  0  0  0  0  0  0  0
  1  2  2  0  0  0  0
  2  3  1  0  0  0  0
  2  4  1  0  0  0  0
  2  5  1  0  0  0  0
  5  6  1  0  0  0  0
  5  7  1  0  0  0  0
  5 11  1  6  0  0  0
  7  8  2  0  0  0  0
  7  9  1  0  0  0  0
  9 10  1  0  0  0  0
  9 12  1  0  0  0  0
 10 13  1  0  0  0  0
M  END
$$$$
