G0G
 OpenBabel04051918493D

 71 75  0  0  1  0  0  0  0  0999 V2000
   11.3541  -22.8259  -17.4129 O   0  0  0  0  0  0  0  0  0  0  0  0
   11.1699  -22.5302  -18.8157 S   0  0  0  0  0  0  0  0  0  0  0  0
   11.3479  -20.8379  -19.0251 N   0  0  0  0  0  0  0  0  0  0  0  0
   10.9246  -20.2856  -20.3267 C   0  0  0  0  0  0  0  0  0  0  0  0
    9.6749  -19.4457  -20.2310 C   0  0  0  0  0  0  0  0  0  0  0  0
    8.6577  -19.7589  -19.3149 C   0  0  0  0  0  0  0  0  0  0  0  0
    7.4883  -19.0013  -19.2643 C   0  0  0  0  0  0  0  0  0  0  0  0
    7.3110  -17.9395  -20.1438 C   0  0  0  0  0  0  0  0  0  0  0  0
    8.2967  -17.6399  -21.0826 C   0  0  0  0  0  0  0  0  0  0  0  0
    9.4772  -18.3845  -21.1228 C   0  0  0  0  0  0  0  0  0  0  0  0
   12.3073  -20.1168  -18.1381 C   0  0  1  0  0  0  0  0  0  0  0  0
   13.6652  -19.8150  -18.7891 C   0  0  0  0  0  0  0  0  0  0  0  0
   13.8972  -18.3324  -18.6564 N   0  3  0  0  0  0  0  0  0  0  0  0
   12.5820  -17.6954  -18.3198 C   0  0  0  0  0  0  0  0  0  0  0  0
   11.7949  -18.7723  -17.5710 C   0  0  2  0  0  0  0  0  0  0  0  0
   11.9724  -18.6787  -16.0799 N   0  0  0  0  0  0  0  0  0  0  0  0
   10.6269  -19.0745  -15.1085 S   0  0  0  0  0  0  0  0  0  0  0  0
    9.9026  -20.0988  -15.8117 O   0  0  0  0  0  0  0  0  0  0  0  0
    9.6473  -17.6002  -15.1164 C   0  0  0  0  0  0  0  0  0  0  0  0
    8.3482  -17.6456  -15.6252 C   0  0  0  0  0  0  0  0  0  0  0  0
    7.5301  -16.5227  -15.5164 C   0  0  0  0  0  0  0  0  0  0  0  0
    8.0116  -15.3664  -14.9029 C   0  0  0  0  0  0  0  0  0  0  0  0
    9.3057  -15.3310  -14.3798 C   0  0  0  0  0  0  0  0  0  0  0  0
   10.1281  -16.4496  -14.4816 C   0  0  0  0  0  0  0  0  0  0  0  0
   11.0852  -19.2387  -13.7427 O   0  0  0  0  0  0  0  0  0  0  0  0
   13.2967  -18.6177  -15.4112 C   0  0  0  0  0  0  0  0  0  0  0  0
   14.0956  -19.9064  -15.3353 C   0  0  0  0  0  0  0  0  0  0  0  0
   13.5153  -21.1033  -14.8865 C   0  0  0  0  0  0  0  0  0  0  0  0
   14.2584  -22.2812  -14.7860 C   0  0  0  0  0  0  0  0  0  0  0  0
   15.6101  -22.2806  -15.1097 C   0  0  0  0  0  0  0  0  0  0  0  0
   16.2237  -21.0979  -15.5014 C   0  0  0  0  0  0  0  0  0  0  0  0
   15.4735  -19.9180  -15.6218 C   0  0  0  0  0  0  0  0  0  0  0  0
    9.9985  -22.9557  -19.5450 O   0  0  0  0  0  0  0  0  0  0  0  0
   12.5951  -23.1555  -19.6797 C   0  0  0  0  0  0  0  0  0  0  0  0
   13.7414  -23.5137  -18.9633 C   0  0  0  0  0  0  0  0  0  0  0  0
   14.8639  -23.9698  -19.6553 C   0  0  0  0  0  0  0  0  0  0  0  0
   14.8332  -24.0740  -21.0474 C   0  0  0  0  0  0  0  0  0  0  0  0
   13.6753  -23.7475  -21.7537 C   0  0  0  0  0  0  0  0  0  0  0  0
   12.5446  -23.3067  -21.0688 C   0  0  0  0  0  0  0  0  0  0  0  0
   10.7319  -21.0749  -21.0589 H   0  0  0  0  0  0  0  0  0  0  0  0
   11.7348  -19.6885  -20.7559 H   0  0  0  0  0  0  0  0  0  0  0  0
    8.7561  -20.5998  -18.6293 H   0  0  0  0  0  0  0  0  0  0  0  0
    6.7096  -19.2574  -18.5486 H   0  0  0  0  0  0  0  0  0  0  0  0
    6.3933  -17.3564  -20.1109 H   0  0  0  0  0  0  0  0  0  0  0  0
    8.1327  -16.8366  -21.7968 H   0  0  0  0  0  0  0  0  0  0  0  0
   10.2232  -18.1377  -21.8746 H   0  0  0  0  0  0  0  0  0  0  0  0
   12.4885  -20.7789  -17.2957 H   0  0  0  0  0  0  0  0  0  0  0  0
   13.7178  -20.0495  -19.8539 H   0  0  0  0  0  0  0  0  0  0  0  0
   14.4924  -20.3107  -18.2773 H   0  0  0  0  0  0  0  0  0  0  0  0
   14.5786  -18.1588  -17.9072 H   0  0  0  0  0  0  0  0  0  0  0  0
   12.1214  -17.4222  -19.2743 H   0  0  0  0  0  0  0  0  0  0  0  0
   12.7792  -16.7903  -17.7364 H   0  0  0  0  0  0  0  0  0  0  0  0
   10.7348  -18.6016  -17.7857 H   0  0  0  0  0  0  0  0  0  0  0  0
    7.9503  -18.5580  -16.0649 H   0  0  0  0  0  0  0  0  0  0  0  0
    6.5077  -16.5593  -15.8847 H   0  0  0  0  0  0  0  0  0  0  0  0
    7.3646  -14.4958  -14.8092 H   0  0  0  0  0  0  0  0  0  0  0  0
    9.6553  -14.4391  -13.8627 H   0  0  0  0  0  0  0  0  0  0  0  0
   11.1145  -16.4376  -14.0234 H   0  0  0  0  0  0  0  0  0  0  0  0
   13.1946  -18.2063  -14.4028 H   0  0  0  0  0  0  0  0  0  0  0  0
   13.8941  -17.8632  -15.9334 H   0  0  0  0  0  0  0  0  0  0  0  0
   12.4676  -21.1580  -14.6003 H   0  0  0  0  0  0  0  0  0  0  0  0
   13.7777  -23.1923  -14.4342 H   0  0  0  0  0  0  0  0  0  0  0  0
   16.1839  -23.2035  -15.0265 H   0  0  0  0  0  0  0  0  0  0  0  0
   17.2963  -21.0912  -15.6854 H   0  0  0  0  0  0  0  0  0  0  0  0
   15.9990  -19.0132  -15.9143 H   0  0  0  0  0  0  0  0  0  0  0  0
   13.7645  -23.4633  -17.8763 H   0  0  0  0  0  0  0  0  0  0  0  0
   15.7600  -24.2636  -19.1120 H   0  0  0  0  0  0  0  0  0  0  0  0
   15.7068  -24.4404  -21.5841 H   0  0  0  0  0  0  0  0  0  0  0  0
   13.6494  -23.8563  -22.8363 H   0  0  0  0  0  0  0  0  0  0  0  0
   11.6318  -23.1030  -21.6244 H   0  0  0  0  0  0  0  0  0  0  0  0
   14.3099  -17.9300  -19.5087 H   0  0  0  0  0  0  0  0  0  0  0  0
  1  2  2  0  0  0  0
  2  3  1  0  0  0  0
  2 33  2  0  0  0  0
  2 34  1  0  0  0  0
  3  4  1  0  0  0  0
  3 11  1  0  0  0  0
  4  5  1  0  0  0  0
  4 40  1  0  0  0  0
  4 41  1  0  0  0  0
  5  6  2  0  0  0  0
  5 10  1  0  0  0  0
  6  7  1  0  0  0  0
  6 42  1  0  0  0  0
  7  8  2  0  0  0  0
  7 43  1  0  0  0  0
  8  9  1  0  0  0  0
  8 44  1  0  0  0  0
  9 10  2  0  0  0  0
  9 45  1  0  0  0  0
 10 46  1  0  0  0  0
 11 12  1  0  0  0  0
 11 15  1  0  0  0  0
 11 47  1  1  0  0  0
 12 13  1  0  0  0  0
 12 48  1  0  0  0  0
 12 49  1  0  0  0  0
 13 14  1  0  0  0  0
 13 50  1  0  0  0  0
 13 71  1  0  0  0  0
 14 15  1  0  0  0  0
 14 51  1  0  0  0  0
 14 52  1  0  0  0  0
 15 16  1  0  0  0  0
 15 53  1  6  0  0  0
 16 17  1  0  0  0  0
 16 26  1  0  0  0  0
 17 18  2  0  0  0  0
 17 19  1  0  0  0  0
 17 25  2  0  0  0  0
 19 20  2  0  0  0  0
 19 24  1  0  0  0  0
 20 21  1  0  0  0  0
 20 54  1  0  0  0  0
 21 22  2  0  0  0  0
 21 55  1  0  0  0  0
 22 23  1  0  0  0  0
 22 56  1  0  0  0  0
 23 24  2  0  0  0  0
 23 57  1  0  0  0  0
 24 58  1  0  0  0  0
 26 27  1  0  0  0  0
 26 59  1  0  0  0  0
 26 60  1  0  0  0  0
 27 28  2  0  0  0  0
 27 32  1  0  0  0  0
 28 29  1  0  0  0  0
 28 61  1  0  0  0  0
 29 30  2  0  0  0  0
 29 62  1  0  0  0  0
 30 31  1  0  0  0  0
 30 63  1  0  0  0  0
 31 32  2  0  0  0  0
 31 64  1  0  0  0  0
 32 65  1  0  0  0  0
 34 35  2  0  0  0  0
 34 39  1  0  0  0  0
 35 36  1  0  0  0  0
 35 66  1  0  0  0  0
 36 37  2  0  0  0  0
 36 67  1  0  0  0  0
 37 38  1  0  0  0  0
 37 68  1  0  0  0  0
 38 39  2  0  0  0  0
 38 69  1  0  0  0  0
 39 70  1  0  0  0  0
M  CHG  1  13   1
M  END
$$$$
