G15
 OpenBabel04051918233D

 52 55  0  0  1  0  0  0  0  0999 V2000
    6.2199    4.7186   17.8089 O   0  0  0  0  0  0  0  0  0  0  0  0
    6.9903    3.9823   18.4381 C   0  0  0  0  0  0  0  0  0  0  0  0
    7.7829    3.0553   17.7818 N   0  0  0  0  0  0  0  0  0  0  0  0
    7.6515    2.9354   16.3241 C   0  0  0  0  0  0  0  0  0  0  0  0
    9.0131    3.0279   15.6442 C   0  0  0  0  0  0  0  0  0  0  0  0
    9.9169    2.0605   16.2055 O   0  0  0  0  0  0  0  0  0  0  0  0
   10.1386    2.3463   17.5955 C   0  0  0  0  0  0  0  0  0  0  0  0
    8.8344    2.2201   18.3808 C   0  0  0  0  0  0  0  0  0  0  0  0
    7.0588    4.0672   19.9787 C   0  0  2  0  0  0  0  0  0  0  0  0
    6.5360    2.8256   20.6588 C   0  0  0  0  0  0  0  0  0  0  0  0
    6.3893    5.2669   20.4916 N   0  0  0  0  0  0  0  0  0  0  0  0
    4.9663    5.4718   20.6766 C   0  0  0  0  0  0  0  0  0  0  0  0
    4.8328    6.9898   20.5608 C   0  0  0  0  0  0  0  0  0  0  0  0
    7.1094    6.4058   20.7601 C   0  0  0  0  0  0  0  0  0  0  0  0
    8.3262    6.4961   20.7244 O   0  0  0  0  0  0  0  0  0  0  0  0
    6.1179    7.4652   21.2145 C   0  0  1  0  0  0  0  0  0  0  0  0
    6.4635    8.8414   20.9305 N   0  0  0  0  0  0  0  0  0  0  0  0
    6.3362    9.9398   22.1791 S   0  0  0  0  0  0  0  0  0  0  0  0
    4.9473   10.0495   22.5423 O   0  0  0  0  0  0  0  0  0  0  0  0
    7.1531   11.0801   21.8086 O   0  0  0  0  0  0  0  0  0  0  0  0
    7.1054    9.2392   23.5860 C   0  0  0  0  0  0  0  0  0  0  0  0
    6.4868    8.6019   24.5452 N   0  0  0  0  0  0  0  0  0  0  0  0
    7.4212    8.1583   25.4362 N   0  0  0  0  0  0  0  0  0  0  0  0
    8.4700    9.1643   23.8004 N   0  3  0  0  0  0  0  0  0  0  0  0
    8.5999    8.4964   24.9747 C   0  0  0  0  0  0  0  0  0  0  0  0
    9.8318    8.1851   25.6479 C   0  0  0  0  0  0  0  0  0  0  0  0
    9.9230    7.6389   26.9136 C   0  0  0  0  0  0  0  0  0  0  0  0
   11.2682    7.3990   27.3065 C   0  0  0  0  0  0  0  0  0  0  0  0
   12.1410    7.7777   26.3234 C   0  0  0  0  0  0  0  0  0  0  0  0
   11.3781    8.4257   24.9544 S   0  0  0  0  0  0  0  0  0  0  0  0
   13.8519    7.6315   26.3781 Cl  0  0  0  0  0  0  0  0  0  0  0  0
    6.9937    3.7129   15.9261 H   0  0  0  0  0  0  0  0  0  0  0  0
    7.1971    1.9606   16.1135 H   0  0  0  0  0  0  0  0  0  0  0  0
    9.4373    4.0311   15.7677 H   0  0  0  0  0  0  0  0  0  0  0  0
    8.9143    2.8291   14.5722 H   0  0  0  0  0  0  0  0  0  0  0  0
   10.5463    3.3589   17.6934 H   0  0  0  0  0  0  0  0  0  0  0  0
   10.8812    1.6399   17.9799 H   0  0  0  0  0  0  0  0  0  0  0  0
    8.4868    1.1801   18.3500 H   0  0  0  0  0  0  0  0  0  0  0  0
    9.0162    2.4958   19.4202 H   0  0  0  0  0  0  0  0  0  0  0  0
    8.1199    4.1819   20.2230 H   0  0  0  0  0  0  0  0  0  0  0  0
    7.0314    1.9291   20.2851 H   0  0  0  0  0  0  0  0  0  0  0  0
    5.4634    2.7122   20.4919 H   0  0  0  0  0  0  0  0  0  0  0  0
    6.7186    2.8927   21.7358 H   0  0  0  0  0  0  0  0  0  0  0  0
    4.6977    5.1412   21.6922 H   0  0  0  0  0  0  0  0  0  0  0  0
    4.3641    4.9358   19.9445 H   0  0  0  0  0  0  0  0  0  0  0  0
    3.9477    7.3765   21.0721 H   0  0  0  0  0  0  0  0  0  0  0  0
    4.7811    7.2844   19.5046 H   0  0  0  0  0  0  0  0  0  0  0  0
    6.0209    7.3381   22.2933 H   0  0  0  0  0  0  0  0  0  0  0  0
    6.6952    9.1929   20.0047 H   0  0  0  0  0  0  0  0  0  0  0  0
    9.2041    9.5193   23.1941 H   0  0  0  0  0  0  0  0  0  0  0  0
    9.0528    7.4110   27.5191 H   0  0  0  0  0  0  0  0  0  0  0  0
   11.5631    6.9629   28.2527 H   0  0  0  0  0  0  0  0  0  0  0  0
  1  2  2  0  0  0  0
  2  3  1  0  0  0  0
  2  9  1  0  0  0  0
  3  4  1  0  0  0  0
  3  8  1  0  0  0  0
  4  5  1  0  0  0  0
  4 32  1  0  0  0  0
  4 33  1  0  0  0  0
  5  6  1  0  0  0  0
  5 34  1  0  0  0  0
  5 35  1  0  0  0  0
  6  7  1  0  0  0  0
  7  8  1  0  0  0  0
  7 36  1  0  0  0  0
  7 37  1  0  0  0  0
  8 38  1  0  0  0  0
  8 39  1  0  0  0  0
  9 10  1  0  0  0  0
  9 11  1  0  0  0  0
  9 40  1  1  0  0  0
 10 41  1  0  0  0  0
 10 42  1  0  0  0  0
 10 43  1  0  0  0  0
 11 12  1  0  0  0  0
 11 14  1  0  0  0  0
 12 13  1  0  0  0  0
 12 44  1  0  0  0  0
 12 45  1  0  0  0  0
 13 16  1  0  0  0  0
 13 46  1  0  0  0  0
 13 47  1  0  0  0  0
 14 15  2  0  0  0  0
 14 16  1  0  0  0  0
 16 17  1  0  0  0  0
 16 48  1  1  0  0  0
 17 18  1  0  0  0  0
 17 49  1  0  0  0  0
 18 19  2  0  0  0  0
 18 20  2  0  0  0  0
 18 21  1  0  0  0  0
 21 22  1  0  0  0  0
 21 24  2  0  0  0  0
 22 23  1  0  0  0  0
 23 25  2  0  0  0  0
 24 25  1  0  0  0  0
 24 50  1  0  0  0  0
 25 26  1  0  0  0  0
 26 27  2  0  0  0  0
 26 30  1  0  0  0  0
 27 28  1  0  0  0  0
 27 51  1  0  0  0  0
 28 29  2  0  0  0  0
 28 52  1  0  0  0  0
 29 30  1  0  0  0  0
 29 31  1  0  0  0  0
M  CHG  1  24   1
M  END
$$$$
