G39
 OpenBabel04051920403D

 44 44  0  0  1  0  0  0  0  0999 V2000
   15.2525  -20.3305   44.8182 C   0  0  0  0  0  0  0  0  0  0  0  0
   16.2133  -20.3576   45.6341 O   0  0  0  0  0  0  0  0  0  0  0  0
   14.0239  -20.5243   44.9546 O   0  0  0  0  0  0  0  0  0  0  0  0
   15.6026  -19.8670   43.3900 C   0  0  0  0  0  0  0  0  0  0  0  0
   14.5079  -19.4263   42.4676 C   0  0  0  0  0  0  0  0  0  0  0  0
   15.0791  -18.4565   41.4456 C   0  0  1  0  0  0  0  0  0  0  0  0
   16.2838  -19.0599   40.7220 C   0  0  1  0  0  0  0  0  0  0  0  0
   16.6685  -18.2022   39.5826 N   0  0  0  0  0  0  0  0  0  0  0  0
   17.0252  -18.7615   38.3664 C   0  0  0  0  0  0  0  0  0  0  0  0
   16.7779  -19.8957   38.0413 O   0  0  0  0  0  0  0  0  0  0  0  0
   17.6754  -17.7589   37.4459 C   0  0  0  0  0  0  0  0  0  0  0  0
   17.4127  -19.2252   41.7593 C   0  0  1  0  0  0  0  0  0  0  0  0
   16.8932  -19.8147   43.0342 C   0  0  0  0  0  0  0  0  0  0  0  0
   18.3807  -20.0894   41.1987 O   0  0  0  0  0  0  0  0  0  0  0  0
   19.6771  -19.9512   41.7818 C   0  0  0  0  0  0  0  0  0  0  0  0
   20.4764  -18.8625   41.0687 C   0  0  0  0  0  0  0  0  0  0  0  0
   20.3672  -21.3059   41.6533 C   0  0  0  0  0  0  0  0  0  0  0  0
   19.8913  -22.2378   42.7505 C   0  0  0  0  0  0  0  0  0  0  0  0
   20.4292  -18.9946   39.5637 C   0  0  0  0  0  0  0  0  0  0  0  0
   14.0357  -18.0983   40.4458 N   0  3  0  0  0  0  0  0  0  0  0  0
   13.6847  -18.9380   42.9998 H   0  0  0  0  0  0  0  0  0  0  0  0
   14.0976  -20.3080   41.9563 H   0  0  0  0  0  0  0  0  0  0  0  0
   15.3692  -17.5094   41.9184 H   0  0  0  0  0  0  0  0  0  0  0  0
   16.0205  -20.0533   40.3264 H   0  0  0  0  0  0  0  0  0  0  0  0
   16.9103  -17.2344   39.7524 H   0  0  0  0  0  0  0  0  0  0  0  0
   17.8980  -18.2456   36.4938 H   0  0  0  0  0  0  0  0  0  0  0  0
   18.6074  -17.3847   37.8778 H   0  0  0  0  0  0  0  0  0  0  0  0
   16.9948  -16.9219   37.2805 H   0  0  0  0  0  0  0  0  0  0  0  0
   17.8449  -18.2352   41.9667 H   0  0  0  0  0  0  0  0  0  0  0  0
   17.6247  -20.2354   43.7260 H   0  0  0  0  0  0  0  0  0  0  0  0
   19.5954  -19.6790   42.8399 H   0  0  0  0  0  0  0  0  0  0  0  0
   21.5195  -18.9061   41.3949 H   0  0  0  0  0  0  0  0  0  0  0  0
   20.0842  -17.8782   41.3451 H   0  0  0  0  0  0  0  0  0  0  0  0
   21.4506  -21.1884   41.7377 H   0  0  0  0  0  0  0  0  0  0  0  0
   20.1409  -21.7643   40.6831 H   0  0  0  0  0  0  0  0  0  0  0  0
   20.3910  -23.2052   42.6699 H   0  0  0  0  0  0  0  0  0  0  0  0
   18.8111  -22.3937   42.6854 H   0  0  0  0  0  0  0  0  0  0  0  0
   20.1216  -21.8109   43.7325 H   0  0  0  0  0  0  0  0  0  0  0  0
   21.0077  -18.1989   39.0904 H   0  0  0  0  0  0  0  0  0  0  0  0
   19.4031  -18.9202   39.2181 H   0  0  0  0  0  0  0  0  0  0  0  0
   20.8214  -19.9602   39.2389 H   0  0  0  0  0  0  0  0  0  0  0  0
   14.4239  -17.4633   39.7397 H   0  0  0  0  0  0  0  0  0  0  0  0
   13.7147  -18.9442   39.9555 H   0  0  0  0  0  0  0  0  0  0  0  0
   13.2369  -17.6577   40.9157 H   0  0  0  0  0  0  0  0  0  0  0  0
  1  2  2  0  0  0  0
  1  3  1  0  0  0  0
  1  4  1  0  0  0  0
  4  5  1  0  0  0  0
  4 13  2  0  0  0  0
  5  6  1  0  0  0  0
  5 21  1  0  0  0  0
  5 22  1  0  0  0  0
  6  7  1  0  0  0  0
  6 20  1  0  0  0  0
  6 23  1  1  0  0  0
  7  8  1  0  0  0  0
  7 12  1  0  0  0  0
  7 24  1  6  0  0  0
  8  9  1  0  0  0  0
  8 25  1  0  0  0  0
  9 10  2  0  0  0  0
  9 11  1  0  0  0  0
 11 26  1  0  0  0  0
 11 27  1  0  0  0  0
 11 28  1  0  0  0  0
 12 13  1  0  0  0  0
 12 14  1  0  0  0  0
 12 29  1  1  0  0  0
 13 30  1  0  0  0  0
 14 15  1  0  0  0  0
 15 16  1  0  0  0  0
 15 17  1  0  0  0  0
 15 31  1  0  0  0  0
 16 19  1  0  0  0  0
 16 32  1  0  0  0  0
 16 33  1  0  0  0  0
 17 18  1  0  0  0  0
 17 34  1  0  0  0  0
 17 35  1  0  0  0  0
 18 36  1  0  0  0  0
 18 37  1  0  0  0  0
 18 38  1  0  0  0  0
 19 39  1  0  0  0  0
 19 40  1  0  0  0  0
 19 41  1  0  0  0  0
 20 42  1  0  0  0  0
 20 43  1  0  0  0  0
 20 44  1  0  0  0  0
M  CHG  1  20   1
M  END
$$$$
