G3G
 OpenBabel04051919173D

 75 79  0  0  1  0  0  0  0  0999 V2000
  -14.7492   23.7417   -1.7394 C   0  0  0  0  0  0  0  0  0  0  0  0
  -13.6880   24.2345   -2.5072 C   0  0  0  0  0  0  0  0  0  0  0  0
  -13.7824   24.1695   -3.9007 C   0  0  0  0  0  0  0  0  0  0  0  0
  -14.9275   23.6555   -4.5213 C   0  0  0  0  0  0  0  0  0  0  0  0
  -15.9792   23.1658   -3.7400 C   0  0  0  0  0  0  0  0  0  0  0  0
  -15.9057   23.2336   -2.3462 C   0  0  0  0  0  0  0  0  0  0  0  0
  -17.4488   22.5487   -4.5453 S   0  0  0  0  0  0  0  0  0  0  0  0
  -18.5782   22.9680   -3.7560 O   0  0  0  0  0  0  0  0  0  0  0  0
  -17.3259   22.8655   -5.9414 O   0  0  0  0  0  0  0  0  0  0  0  0
  -17.2808   20.8441   -4.3790 N   0  0  0  0  0  0  0  0  0  0  0  0
  -17.7120   20.2408   -3.0998 C   0  0  0  0  0  0  0  0  0  0  0  0
  -18.9790   19.4078   -3.1627 C   0  0  0  0  0  0  0  0  0  0  0  0
  -19.1179   18.2985   -2.3094 C   0  0  0  0  0  0  0  0  0  0  0  0
  -20.2996   17.5505   -2.2794 C   0  0  0  0  0  0  0  0  0  0  0  0
  -21.3633   17.8979   -3.1049 C   0  0  0  0  0  0  0  0  0  0  0  0
  -21.2520   19.0046   -3.9432 C   0  0  0  0  0  0  0  0  0  0  0  0
  -20.0755   19.7630   -3.9641 C   0  0  0  0  0  0  0  0  0  0  0  0
  -16.3179   20.1569   -5.2983 C   0  0  1  0  0  0  0  0  0  0  0  0
  -14.9612   19.7989   -4.6676 C   0  0  0  0  0  0  0  0  0  0  0  0
  -14.8470   18.2964   -4.6933 N   0  3  0  0  0  0  0  0  0  0  0  0
  -16.1635   17.7279   -5.1285 C   0  0  0  0  0  0  0  0  0  0  0  0
  -16.8976   18.8441   -5.8690 C   0  0  2  0  0  0  0  0  0  0  0  0
  -16.7780   18.7143   -7.3541 N   0  0  0  0  0  0  0  0  0  0  0  0
  -15.4696   18.5698   -8.0321 C   0  0  0  0  0  0  0  0  0  0  0  0
  -14.5905   19.8105   -8.1141 C   0  0  0  0  0  0  0  0  0  0  0  0
  -13.2362   19.7610   -7.7573 C   0  0  0  0  0  0  0  0  0  0  0  0
  -12.4123   20.8896   -7.8611 C   0  0  0  0  0  0  0  0  0  0  0  0
  -12.9324   22.0895   -8.3515 C   0  0  0  0  0  0  0  0  0  0  0  0
  -14.2666   22.1492   -8.7376 C   0  0  0  0  0  0  0  0  0  0  0  0
  -15.0908   21.0132   -8.6238 C   0  0  0  0  0  0  0  0  0  0  0  0
  -18.1256   19.1409   -8.3166 S   0  0  0  0  0  0  0  0  0  0  0  0
  -19.2749   17.7830   -8.1550 C   0  0  0  0  0  0  0  0  0  0  0  0
  -19.0575   16.5601   -8.7993 C   0  0  0  0  0  0  0  0  0  0  0  0
  -20.0466   15.5604   -8.7384 C   0  0  0  0  0  0  0  0  0  0  0  0
  -21.2625   15.7807   -8.0794 C   0  0  0  0  0  0  0  0  0  0  0  0
  -21.4656   17.0128   -7.4565 C   0  0  0  0  0  0  0  0  0  0  0  0
  -20.4890   18.0117   -7.5041 C   0  0  0  0  0  0  0  0  0  0  0  0
  -17.7069   19.1689   -9.6975 O   0  0  0  0  0  0  0  0  0  0  0  0
  -18.7208   20.2911   -7.6728 O   0  0  0  0  0  0  0  0  0  0  0  0
  -22.1870   14.7615   -7.9173 N   0  0  0  0  0  0  0  0  0  0  0  0
  -12.4819   24.5745   -1.9026 N   0  0  0  0  0  0  0  0  0  0  0  0
  -14.6904   23.7761   -0.6529 H   0  0  0  0  0  0  0  0  0  0  0  0
  -12.9700   24.5422   -4.5202 H   0  0  0  0  0  0  0  0  0  0  0  0
  -14.9915   23.6650   -5.6072 H   0  0  0  0  0  0  0  0  0  0  0  0
  -16.7356   22.9179   -1.7192 H   0  0  0  0  0  0  0  0  0  0  0  0
  -17.8670   21.0035   -2.3298 H   0  0  0  0  0  0  0  0  0  0  0  0
  -16.9030   19.6079   -2.7221 H   0  0  0  0  0  0  0  0  0  0  0  0
  -18.3176   18.0144   -1.6294 H   0  0  0  0  0  0  0  0  0  0  0  0
  -20.4016   16.7098   -1.5961 H   0  0  0  0  0  0  0  0  0  0  0  0
  -22.2866   17.3202   -3.0803 H   0  0  0  0  0  0  0  0  0  0  0  0
  -22.0963   19.2902   -4.5694 H   0  0  0  0  0  0  0  0  0  0  0  0
  -20.0385   20.6428   -4.6068 H   0  0  0  0  0  0  0  0  0  0  0  0
  -16.1144   20.8447   -6.1198 H   0  0  0  0  0  0  0  0  0  0  0  0
  -14.8348   20.1186   -3.6323 H   0  0  0  0  0  0  0  0  0  0  0  0
  -14.1144   20.1765   -5.2456 H   0  0  0  0  0  0  0  0  0  0  0  0
  -14.1004   18.0132   -5.3458 H   0  0  0  0  0  0  0  0  0  0  0  0
  -16.6801   17.4193   -4.2137 H   0  0  0  0  0  0  0  0  0  0  0  0
  -15.9642   16.8433   -5.7421 H   0  0  0  0  0  0  0  0  0  0  0  0
  -17.9606   18.7488   -5.6272 H   0  0  0  0  0  0  0  0  0  0  0  0
  -15.6027   18.1554   -9.0371 H   0  0  0  0  0  0  0  0  0  0  0  0
  -14.9122   17.7884   -7.5052 H   0  0  0  0  0  0  0  0  0  0  0  0
  -12.7768   18.8343   -7.4065 H   0  0  0  0  0  0  0  0  0  0  0  0
  -11.3719   20.8404   -7.5883 H   0  0  0  0  0  0  0  0  0  0  0  0
  -12.2957   22.9663   -8.4578 H   0  0  0  0  0  0  0  0  0  0  0  0
  -14.6798   23.0690   -9.1423 H   0  0  0  0  0  0  0  0  0  0  0  0
  -16.1163   21.1113   -8.9637 H   0  0  0  0  0  0  0  0  0  0  0  0
  -18.1535   16.3754   -9.3743 H   0  0  0  0  0  0  0  0  0  0  0  0
  -19.8764   14.6072   -9.2365 H   0  0  0  0  0  0  0  0  0  0  0  0
  -22.4035   17.2173   -6.9453 H   0  0  0  0  0  0  0  0  0  0  0  0
  -20.7062   18.9772   -7.0524 H   0  0  0  0  0  0  0  0  0  0  0  0
  -22.1147   13.9132   -8.4662 H   0  0  0  0  0  0  0  0  0  0  0  0
  -23.1063   14.9766   -7.5461 H   0  0  0  0  0  0  0  0  0  0  0  0
  -12.4980   24.8072   -0.9132 H   0  0  0  0  0  0  0  0  0  0  0  0
  -11.8203   25.1238   -2.4448 H   0  0  0  0  0  0  0  0  0  0  0  0
  -14.5657   17.9297   -3.7742 H   0  0  0  0  0  0  0  0  0  0  0  0
  1  2  2  0  0  0  0
  1  6  1  0  0  0  0
  1 42  1  0  0  0  0
  2  3  1  0  0  0  0
  2 41  1  0  0  0  0
  3  4  2  0  0  0  0
  3 43  1  0  0  0  0
  4  5  1  0  0  0  0
  4 44  1  0  0  0  0
  5  6  2  0  0  0  0
  5  7  1  0  0  0  0
  6 45  1  0  0  0  0
  7  8  2  0  0  0  0
  7  9  2  0  0  0  0
  7 10  1  0  0  0  0
 10 11  1  0  0  0  0
 10 18  1  0  0  0  0
 11 12  1  0  0  0  0
 11 46  1  0  0  0  0
 11 47  1  0  0  0  0
 12 13  2  0  0  0  0
 12 17  1  0  0  0  0
 13 14  1  0  0  0  0
 13 48  1  0  0  0  0
 14 15  2  0  0  0  0
 14 49  1  0  0  0  0
 15 16  1  0  0  0  0
 15 50  1  0  0  0  0
 16 17  2  0  0  0  0
 16 51  1  0  0  0  0
 17 52  1  0  0  0  0
 18 19  1  0  0  0  0
 18 22  1  0  0  0  0
 18 53  1  6  0  0  0
 19 20  1  0  0  0  0
 19 54  1  0  0  0  0
 19 55  1  0  0  0  0
 20 21  1  0  0  0  0
 20 56  1  0  0  0  0
 20 75  1  0  0  0  0
 21 22  1  0  0  0  0
 21 57  1  0  0  0  0
 21 58  1  0  0  0  0
 22 23  1  0  0  0  0
 22 59  1  1  0  0  0
 23 24  1  0  0  0  0
 23 31  1  0  0  0  0
 24 25  1  0  0  0  0
 24 60  1  0  0  0  0
 24 61  1  0  0  0  0
 25 26  2  0  0  0  0
 25 30  1  0  0  0  0
 26 27  1  0  0  0  0
 26 62  1  0  0  0  0
 27 28  2  0  0  0  0
 27 63  1  0  0  0  0
 28 29  1  0  0  0  0
 28 64  1  0  0  0  0
 29 30  2  0  0  0  0
 29 65  1  0  0  0  0
 30 66  1  0  0  0  0
 31 32  1  0  0  0  0
 31 38  2  0  0  0  0
 31 39  2  0  0  0  0
 32 33  2  0  0  0  0
 32 37  1  0  0  0  0
 33 34  1  0  0  0  0
 33 67  1  0  0  0  0
 34 35  2  0  0  0  0
 34 68  1  0  0  0  0
 35 36  1  0  0  0  0
 35 40  1  0  0  0  0
 36 37  2  0  0  0  0
 36 69  1  0  0  0  0
 37 70  1  0  0  0  0
 40 71  1  0  0  0  0
 40 72  1  0  0  0  0
 41 73  1  0  0  0  0
 41 74  1  0  0  0  0
M  CHG  1  20   1
M  END
$$$$
