G40
 OpenBabel04051920353D

103105  0  0  1  0  0  0  0  0999 V2000
   11.9451   24.2813    4.5618 C   0  0  1  0  0  0  0  0  0  0  0  0
   10.7739   24.2330    5.6354 C   0  0  0  0  0  0  0  0  0  0  0  0
   10.4897   23.2355    6.2538 O   0  0  0  0  0  0  0  0  0  0  0  0
   10.0716   25.4279    5.7203 N   0  0  0  0  0  0  0  0  0  0  0  0
    8.8595   25.7442    6.5378 C   0  0  1  0  0  0  0  0  0  0  0  0
    9.0392   26.3090    8.0247 C   0  0  0  0  0  0  0  0  0  0  0  0
    7.6866   26.6134    8.7412 C   0  0  0  0  0  0  0  0  0  0  0  0
    9.8374   27.6127    8.0838 C   0  0  0  0  0  0  0  0  0  0  0  0
    5.7103   26.8711    4.7088 C   0  0  0  0  0  0  0  0  0  0  0  0
    6.7470   26.2406    5.4771 N   0  0  0  0  0  0  0  0  0  0  0  0
    8.0328   26.7471    5.6551 C   0  0  0  0  0  0  0  0  0  0  0  0
    8.4544   27.7861    5.1953 O   0  0  0  0  0  0  0  0  0  0  0  0
    9.7958   25.3082    8.9067 C   0  0  0  0  0  0  0  0  0  0  0  0
   11.4028   23.6268    3.2419 C   0  0  0  0  0  0  0  0  0  0  0  0
   10.0294   24.1413    2.7215 C   0  0  0  0  0  0  0  0  0  0  0  0
    8.8789   23.3107    2.8339 C   0  0  0  0  0  0  0  0  0  0  0  0
    7.6055   23.7646    2.3971 C   0  0  0  0  0  0  0  0  0  0  0  0
    7.4667   25.0510    1.8386 C   0  0  0  0  0  0  0  0  0  0  0  0
    8.5976   25.8895    1.7171 C   0  0  0  0  0  0  0  0  0  0  0  0
    9.8715   25.4377    2.1540 C   0  0  0  0  0  0  0  0  0  0  0  0
   12.3154   25.6442    4.2720 O   0  0  0  0  0  0  0  0  0  0  0  0
   13.2906   23.6212    5.0010 C   0  0  0  0  0  0  0  0  0  0  0  0
   13.8353   24.0473    6.3811 C   0  0  0  0  0  0  0  0  0  0  0  0
   15.3141   23.7084    6.5819 C   0  0  0  0  0  0  0  0  0  0  0  0
   15.4546   22.3534    7.1323 N   0  0  0  0  0  0  0  0  0  0  0  0
   16.4021   22.3675    8.2656 C   0  0  0  0  0  0  0  0  0  0  0  0
   16.5942   21.0198    8.9557 C   0  0  0  0  0  0  0  0  0  0  0  0
   15.4623   20.2789    9.3687 C   0  0  0  0  0  0  0  0  0  0  0  0
   15.6278   19.0390   10.0246 C   0  0  0  0  0  0  0  0  0  0  0  0
   16.9138   18.5165   10.2936 C   0  0  0  0  0  0  0  0  0  0  0  0
   18.0592   19.2704    9.8862 C   0  0  0  0  0  0  0  0  0  0  0  0
   17.8978   20.5204    9.2177 C   0  0  0  0  0  0  0  0  0  0  0  0
   15.3373   18.9109    3.4298 C   0  0  0  0  0  0  0  0  0  0  0  0
   19.9031   17.6996    6.7476 C   0  0  0  0  0  0  0  0  0  0  0  0
   18.5121   18.0062    6.5845 O   0  0  0  0  0  0  0  0  0  0  0  0
   18.1696   18.9477    5.6557 C   0  0  0  0  0  0  0  0  0  0  0  0
   18.9258   19.6934    5.0724 O   0  0  0  0  0  0  0  0  0  0  0  0
   16.8270   18.8739    5.4486 N   0  0  0  0  0  0  0  0  0  0  0  0
   16.0723   19.7488    4.5390 C   0  0  2  0  0  0  0  0  0  0  0  0
   15.2336   20.5303    5.5619 C   0  0  0  0  0  0  0  0  0  0  0  0
   15.9907   21.5592    6.1245 N   0  0  0  0  0  0  0  0  0  0  0  0
   14.1437   20.2322    5.9356 O   0  0  0  0  0  0  0  0  0  0  0  0
   16.3987   18.2535    2.5319 C   0  0  0  0  0  0  0  0  0  0  0  0
   14.5081   19.7830    2.4821 C   0  0  0  0  0  0  0  0  0  0  0  0
   14.4739   17.7788    3.9776 C   0  0  0  0  0  0  0  0  0  0  0  0
   16.3936   14.9064   12.0600 S   0  0  0  0  0  0  0  0  0  0  0  0
   15.9598   16.3361   11.1787 C   0  0  0  0  0  0  0  0  0  0  0  0
   17.0314   17.2088   11.0084 C   0  0  0  0  0  0  0  0  0  0  0  0
   18.2176   16.6735   11.6231 C   0  0  0  0  0  0  0  0  0  0  0  0
   18.0182   15.4428   12.2236 C   0  0  0  0  0  0  0  0  0  0  0  0
   10.4132   26.1445    5.0901 H   0  0  0  0  0  0  0  0  0  0  0  0
    8.2629   24.8242    6.6142 H   0  0  0  0  0  0  0  0  0  0  0  0
    7.8504   26.9883    9.7703 H   0  0  0  0  0  0  0  0  0  0  0  0
    7.0607   25.7169    8.8172 H   0  0  0  0  0  0  0  0  0  0  0  0
    7.1228   27.3888    8.2074 H   0  0  0  0  0  0  0  0  0  0  0  0
   10.8133   27.4763    7.6155 H   0  0  0  0  0  0  0  0  0  0  0  0
    9.9994   27.9241    9.1302 H   0  0  0  0  0  0  0  0  0  0  0  0
    9.2986   28.4165    7.5784 H   0  0  0  0  0  0  0  0  0  0  0  0
    4.8251   26.2290    4.7492 H   0  0  0  0  0  0  0  0  0  0  0  0
    6.0270   26.9920    3.6729 H   0  0  0  0  0  0  0  0  0  0  0  0
    5.4762   27.8438    5.1422 H   0  0  0  0  0  0  0  0  0  0  0  0
    6.5564   25.3543    5.9004 H   0  0  0  0  0  0  0  0  0  0  0  0
    9.2774   24.3455    8.9341 H   0  0  0  0  0  0  0  0  0  0  0  0
    9.8825   25.6801    9.9409 H   0  0  0  0  0  0  0  0  0  0  0  0
   10.8086   25.1602    8.5196 H   0  0  0  0  0  0  0  0  0  0  0  0
   11.3301   22.5344    3.3991 H   0  0  0  0  0  0  0  0  0  0  0  0
   12.1577   23.7744    2.4487 H   0  0  0  0  0  0  0  0  0  0  0  0
    8.9669   22.3061    3.2682 H   0  0  0  0  0  0  0  0  0  0  0  0
    6.7274   23.1086    2.4933 H   0  0  0  0  0  0  0  0  0  0  0  0
    6.4825   25.4024    1.5017 H   0  0  0  0  0  0  0  0  0  0  0  0
    8.4847   26.8974    1.2830 H   0  0  0  0  0  0  0  0  0  0  0  0
   10.7328   26.1079    2.0525 H   0  0  0  0  0  0  0  0  0  0  0  0
   13.0186   25.6083    3.6026 H   0  0  0  0  0  0  0  0  0  0  0  0
   14.0564   23.9042    4.2553 H   0  0  0  0  0  0  0  0  0  0  0  0
   13.1930   22.5360    4.9874 H   0  0  0  0  0  0  0  0  0  0  0  0
   13.2593   23.5432    7.1652 H   0  0  0  0  0  0  0  0  0  0  0  0
   13.7321   25.1274    6.5152 H   0  0  0  0  0  0  0  0  0  0  0  0
   15.7728   24.4313    7.2704 H   0  0  0  0  0  0  0  0  0  0  0  0
   15.8506   23.7826    5.6223 H   0  0  0  0  0  0  0  0  0  0  0  0
   16.0249   23.0938    8.9969 H   0  0  0  0  0  0  0  0  0  0  0  0
   17.3690   22.7230    7.8798 H   0  0  0  0  0  0  0  0  0  0  0  0
   14.4513   20.6562    9.1679 H   0  0  0  0  0  0  0  0  0  0  0  0
   14.7326   18.4905   10.3278 H   0  0  0  0  0  0  0  0  0  0  0  0
   19.0768   18.8978   10.0746 H   0  0  0  0  0  0  0  0  0  0  0  0
   18.7810   21.0980    8.8976 H   0  0  0  0  0  0  0  0  0  0  0  0
   20.0195   16.9428    7.5403 H   0  0  0  0  0  0  0  0  0  0  0  0
   20.4715   18.5890    7.0323 H   0  0  0  0  0  0  0  0  0  0  0  0
   20.2983   17.2792    5.8174 H   0  0  0  0  0  0  0  0  0  0  0  0
   16.3173   18.2303    6.0354 H   0  0  0  0  0  0  0  0  0  0  0  0
   16.7184   20.4357    4.0168 H   0  0  0  0  0  0  0  0  0  0  0  0
   16.9305   21.7505    5.8160 H   0  0  0  0  0  0  0  0  0  0  0  0
   15.9232   17.6703    1.7304 H   0  0  0  0  0  0  0  0  0  0  0  0
   17.0232   17.5831    3.1236 H   0  0  0  0  0  0  0  0  0  0  0  0
   17.0300   19.0201    2.0702 H   0  0  0  0  0  0  0  0  0  0  0  0
   13.7086   20.2917    3.0229 H   0  0  0  0  0  0  0  0  0  0  0  0
   14.0559   19.1672    1.6865 H   0  0  0  0  0  0  0  0  0  0  0  0
   15.1498   20.5310    1.9997 H   0  0  0  0  0  0  0  0  0  0  0  0
   15.0697   17.1500    4.6426 H   0  0  0  0  0  0  0  0  0  0  0  0
   14.1010   17.1442    3.1610 H   0  0  0  0  0  0  0  0  0  0  0  0
   13.6193   18.1756    4.5256 H   0  0  0  0  0  0  0  0  0  0  0  0
   14.9398   16.4672   10.8260 H   0  0  0  0  0  0  0  0  0  0  0  0
   19.1731   17.1858   11.6201 H   0  0  0  0  0  0  0  0  0  0  0  0
   18.7768   14.8668   12.7401 H   0  0  0  0  0  0  0  0  0  0  0  0
  1  2  1  1  0  0  0
  1 14  1  0  0  0  0
  1 21  1  0  0  0  0
  1 22  1  0  0  0  0
  2  3  2  0  0  0  0
  2  4  1  0  0  0  0
  4  5  1  0  0  0  0
  4 51  1  0  0  0  0
  5  6  1  0  0  0  0
  5 11  1  0  0  0  0
  5 52  1  1  0  0  0
  6  7  1  0  0  0  0
  6  8  1  0  0  0  0
  6 13  1  0  0  0  0
  7 53  1  0  0  0  0
  7 54  1  0  0  0  0
  7 55  1  0  0  0  0
  8 56  1  0  0  0  0
  8 57  1  0  0  0  0
  8 58  1  0  0  0  0
  9 10  1  0  0  0  0
  9 59  1  0  0  0  0
  9 60  1  0  0  0  0
  9 61  1  0  0  0  0
 10 11  1  0  0  0  0
 10 62  1  0  0  0  0
 11 12  2  0  0  0  0
 13 63  1  0  0  0  0
 13 64  1  0  0  0  0
 13 65  1  0  0  0  0
 14 15  1  0  0  0  0
 14 66  1  0  0  0  0
 14 67  1  0  0  0  0
 15 16  2  0  0  0  0
 15 20  1  0  0  0  0
 16 17  1  0  0  0  0
 16 68  1  0  0  0  0
 17 18  2  0  0  0  0
 17 69  1  0  0  0  0
 18 19  1  0  0  0  0
 18 70  1  0  0  0  0
 19 20  2  0  0  0  0
 19 71  1  0  0  0  0
 20 72  1  0  0  0  0
 21 73  1  0  0  0  0
 22 23  1  0  0  0  0
 22 74  1  0  0  0  0
 22 75  1  0  0  0  0
 23 24  1  0  0  0  0
 23 76  1  0  0  0  0
 23 77  1  0  0  0  0
 24 25  1  0  0  0  0
 24 78  1  0  0  0  0
 24 79  1  0  0  0  0
 25 26  1  0  0  0  0
 25 41  1  0  0  0  0
 26 27  1  0  0  0  0
 26 80  1  0  0  0  0
 26 81  1  0  0  0  0
 27 28  2  0  0  0  0
 27 32  1  0  0  0  0
 28 29  1  0  0  0  0
 28 82  1  0  0  0  0
 29 30  2  0  0  0  0
 29 83  1  0  0  0  0
 30 31  1  0  0  0  0
 30 48  1  0  0  0  0
 31 32  2  0  0  0  0
 31 84  1  0  0  0  0
 32 85  1  0  0  0  0
 33 39  1  0  0  0  0
 33 43  1  0  0  0  0
 33 44  1  0  0  0  0
 33 45  1  0  0  0  0
 34 35  1  0  0  0  0
 34 86  1  0  0  0  0
 34 87  1  0  0  0  0
 34 88  1  0  0  0  0
 35 36  1  0  0  0  0
 36 37  2  0  0  0  0
 36 38  1  0  0  0  0
 38 39  1  0  0  0  0
 38 89  1  0  0  0  0
 39 40  1  0  0  0  0
 39 90  1  6  0  0  0
 40 41  1  0  0  0  0
 40 42  2  0  0  0  0
 41 91  1  0  0  0  0
 43 92  1  0  0  0  0
 43 93  1  0  0  0  0
 43 94  1  0  0  0  0
 44 95  1  0  0  0  0
 44 96  1  0  0  0  0
 44 97  1  0  0  0  0
 45 98  1  0  0  0  0
 45 99  1  0  0  0  0
 45100  1  0  0  0  0
 46 47  1  0  0  0  0
 46 50  1  0  0  0  0
 47 48  2  0  0  0  0
 47101  1  0  0  0  0
 48 49  1  0  0  0  0
 49 50  2  0  0  0  0
 49102  1  0  0  0  0
 50103  1  0  0  0  0
M  END
$$$$
