G4G
 OpenBabel04051918543D

 79 83  0  0  1  0  0  0  0  0999 V2000
    8.8751  -15.2984  -14.3812 C   0  0  0  0  0  0  0  0  0  0  0  0
   16.8906  -24.0337  -21.7103 O   0  0  0  0  0  0  0  0  0  0  0  0
    5.3777  -14.6569  -15.4769 N   0  0  0  0  0  0  0  0  0  0  0  0
   14.2217  -23.5984  -20.8990 C   0  0  0  0  0  0  0  0  0  0  0  0
    6.9428  -13.2790  -14.6217 O   0  0  0  0  0  0  0  0  0  0  0  0
   17.2909  -25.3009  -19.8788 N   0  0  0  0  0  0  0  0  0  0  0  0
    7.3141  -16.7922  -15.4726 C   0  0  0  0  0  0  0  0  0  0  0  0
    7.6081  -15.5283  -14.9489 C   0  0  0  0  0  0  0  0  0  0  0  0
   15.0883  -23.8372  -18.6402 C   0  0  0  0  0  0  0  0  0  0  0  0
   15.2558  -23.9651  -20.0226 C   0  0  0  0  0  0  0  0  0  0  0  0
   13.2428  -18.3471  -14.9093 C   0  0  0  0  0  0  0  0  0  0  0  0
   16.5337  -24.4319  -20.5995 C   0  0  0  0  0  0  0  0  0  0  0  0
   10.6155  -18.9544  -14.6936 S   0  0  0  0  0  0  0  0  0  0  0  0
    6.6302  -14.4042  -14.9928 C   0  0  0  0  0  0  0  0  0  0  0  0
   11.3462  -22.3543  -18.3372 S   0  0  0  0  0  0  0  0  0  0  0  0
   10.0297  -20.0854  -15.3735 O   0  0  0  0  0  0  0  0  0  0  0  0
   11.3707  -22.6091  -16.9145 O   0  0  0  0  0  0  0  0  0  0  0  0
   14.0827  -19.6016  -14.8154 C   0  0  0  0  0  0  0  0  0  0  0  0
   13.5606  -20.7853  -14.2719 C   0  0  0  0  0  0  0  0  0  0  0  0
   15.4188  -19.6098  -15.2502 C   0  0  0  0  0  0  0  0  0  0  0  0
    9.8346  -16.3197  -14.3350 C   0  0  0  0  0  0  0  0  0  0  0  0
   13.0066  -23.1375  -20.3949 C   0  0  0  0  0  0  0  0  0  0  0  0
    8.2689  -17.8048  -15.4437 C   0  0  0  0  0  0  0  0  0  0  0  0
   13.8892  -23.3449  -18.1336 C   0  0  0  0  0  0  0  0  0  0  0  0
   12.5307  -17.5072  -17.8633 C   0  0  0  0  0  0  0  0  0  0  0  0
   13.8454  -18.0616  -18.3210 N   0  3  0  0  0  0  0  0  0  0  0  0
   11.8416  -18.6371  -17.1076 C   0  0  1  0  0  0  0  0  0  0  0  0
   12.4521  -19.9455  -17.6486 C   0  0  2  0  0  0  0  0  0  0  0  0
   13.7806  -19.5614  -18.3045 C   0  0  0  0  0  0  0  0  0  0  0  0
    9.5163  -17.5751  -14.8627 C   0  0  0  0  0  0  0  0  0  0  0  0
   12.8615  -22.9912  -19.0159 C   0  0  0  0  0  0  0  0  0  0  0  0
   11.9589  -18.4857  -15.6285 N   0  0  0  0  0  0  0  0  0  0  0  0
   14.3286  -21.9452  -14.2096 C   0  0  0  0  0  0  0  0  0  0  0  0
   16.2116  -20.7706  -15.1534 C   0  0  0  0  0  0  0  0  0  0  0  0
   15.6555  -21.9305  -14.6255 C   0  0  0  0  0  0  0  0  0  0  0  0
   11.5447  -20.6823  -18.5686 N   0  0  0  0  0  0  0  0  0  0  0  0
   11.1643  -20.1401  -19.8805 C   0  0  0  0  0  0  0  0  0  0  0  0
    9.9205  -19.2985  -19.8277 C   0  0  0  0  0  0  0  0  0  0  0  0
    8.8817  -19.5770  -18.9207 C   0  0  0  0  0  0  0  0  0  0  0  0
    7.7304  -18.7969  -18.9229 C   0  0  0  0  0  0  0  0  0  0  0  0
    7.5802  -17.7824  -19.8627 C   0  0  0  0  0  0  0  0  0  0  0  0
    9.7627  -18.2614  -20.7530 C   0  0  0  0  0  0  0  0  0  0  0  0
    8.5883  -17.5234  -20.7870 C   0  0  0  0  0  0  0  0  0  0  0  0
   10.2632  -22.8128  -19.1819 O   0  0  0  0  0  0  0  0  0  0  0  0
   11.0132  -19.0058  -13.3071 O   0  0  0  0  0  0  0  0  0  0  0  0
    9.1018  -14.3211  -13.9522 H   0  0  0  0  0  0  0  0  0  0  0  0
    5.0289  -15.5583  -15.7571 H   0  0  0  0  0  0  0  0  0  0  0  0
    4.7117  -13.8922  -15.4606 H   0  0  0  0  0  0  0  0  0  0  0  0
   14.3656  -23.6846  -21.9772 H   0  0  0  0  0  0  0  0  0  0  0  0
   16.9902  -25.7466  -19.0250 H   0  0  0  0  0  0  0  0  0  0  0  0
   18.1370  -25.6477  -20.3185 H   0  0  0  0  0  0  0  0  0  0  0  0
    6.3469  -17.0293  -15.9002 H   0  0  0  0  0  0  0  0  0  0  0  0
   15.8906  -24.0942  -17.9529 H   0  0  0  0  0  0  0  0  0  0  0  0
   13.8208  -17.5464  -15.3838 H   0  0  0  0  0  0  0  0  0  0  0  0
   13.0627  -17.9650  -13.8992 H   0  0  0  0  0  0  0  0  0  0  0  0
   12.5409  -20.8442  -13.8936 H   0  0  0  0  0  0  0  0  0  0  0  0
   15.8718  -18.7160  -15.6717 H   0  0  0  0  0  0  0  0  0  0  0  0
   10.7979  -16.1271  -13.8681 H   0  0  0  0  0  0  0  0  0  0  0  0
   12.1921  -22.9115  -21.0775 H   0  0  0  0  0  0  0  0  0  0  0  0
    8.0221  -18.7796  -15.8577 H   0  0  0  0  0  0  0  0  0  0  0  0
   13.7584  -23.2507  -17.0565 H   0  0  0  0  0  0  0  0  0  0  0  0
   11.9875  -17.1997  -18.7620 H   0  0  0  0  0  0  0  0  0  0  0  0
   12.7295  -16.6269  -17.2450 H   0  0  0  0  0  0  0  0  0  0  0  0
   14.0835  -17.7174  -19.2614 H   0  0  0  0  0  0  0  0  0  0  0  0
   10.7775  -18.5677  -17.3487 H   0  0  0  0  0  0  0  0  0  0  0  0
   12.6685  -20.6044  -16.8075 H   0  0  0  0  0  0  0  0  0  0  0  0
   14.6552  -19.9162  -17.7585 H   0  0  0  0  0  0  0  0  0  0  0  0
   13.8755  -19.9018  -19.3384 H   0  0  0  0  0  0  0  0  0  0  0  0
   13.8819  -22.8622  -13.8292 H   0  0  0  0  0  0  0  0  0  0  0  0
   17.2448  -20.7557  -15.4730 H   0  0  0  0  0  0  0  0  0  0  0  0
   16.2579  -22.8302  -14.5195 H   0  0  0  0  0  0  0  0  0  0  0  0
   10.9996  -20.9365  -20.6117 H   0  0  0  0  0  0  0  0  0  0  0  0
   11.9778  -19.5327  -20.2916 H   0  0  0  0  0  0  0  0  0  0  0  0
    8.9697  -20.3898  -18.1987 H   0  0  0  0  0  0  0  0  0  0  0  0
    6.9476  -18.9953  -18.1941 H   0  0  0  0  0  0  0  0  0  0  0  0
    6.6681  -17.1903  -19.8859 H   0  0  0  0  0  0  0  0  0  0  0  0
   10.5480  -18.0324  -21.4702 H   0  0  0  0  0  0  0  0  0  0  0  0
    8.4453  -16.7490  -21.5402 H   0  0  0  0  0  0  0  0  0  0  0  0
   14.5959  -17.7384  -17.6966 H   0  0  0  0  0  0  0  0  0  0  0  0
  1  8  2  0  0  0  0
  1 21  1  0  0  0  0
  1 46  1  0  0  0  0
  2 12  2  0  0  0  0
  3 14  1  0  0  0  0
  3 47  1  0  0  0  0
  3 48  1  0  0  0  0
  4 10  2  0  0  0  0
  4 22  1  0  0  0  0
  4 49  1  0  0  0  0
  5 14  2  0  0  0  0
  6 12  1  0  0  0  0
  6 50  1  0  0  0  0
  6 51  1  0  0  0  0
  7  8  1  0  0  0  0
  7 23  2  0  0  0  0
  7 52  1  0  0  0  0
  8 14  1  0  0  0  0
  9 10  1  0  0  0  0
  9 24  2  0  0  0  0
  9 53  1  0  0  0  0
 10 12  1  0  0  0  0
 11 18  1  0  0  0  0
 11 32  1  0  0  0  0
 11 54  1  0  0  0  0
 11 55  1  0  0  0  0
 13 16  2  0  0  0  0
 13 30  1  0  0  0  0
 13 32  1  0  0  0  0
 13 45  2  0  0  0  0
 15 17  2  0  0  0  0
 15 31  1  0  0  0  0
 15 36  1  0  0  0  0
 15 44  2  0  0  0  0
 18 19  2  0  0  0  0
 18 20  1  0  0  0  0
 19 33  1  0  0  0  0
 19 56  1  0  0  0  0
 20 34  2  0  0  0  0
 20 57  1  0  0  0  0
 21 30  2  0  0  0  0
 21 58  1  0  0  0  0
 22 31  2  0  0  0  0
 22 59  1  0  0  0  0
 23 30  1  0  0  0  0
 23 60  1  0  0  0  0
 24 31  1  0  0  0  0
 24 61  1  0  0  0  0
 25 26  1  0  0  0  0
 25 27  1  0  0  0  0
 25 62  1  0  0  0  0
 25 63  1  0  0  0  0
 26 29  1  0  0  0  0
 26 64  1  0  0  0  0
 26 79  1  0  0  0  0
 27 28  1  0  0  0  0
 27 32  1  0  0  0  0
 27 65  1  6  0  0  0
 28 29  1  0  0  0  0
 28 36  1  0  0  0  0
 28 66  1  1  0  0  0
 29 67  1  0  0  0  0
 29 68  1  0  0  0  0
 33 35  2  0  0  0  0
 33 69  1  0  0  0  0
 34 35  1  0  0  0  0
 34 70  1  0  0  0  0
 35 71  1  0  0  0  0
 36 37  1  0  0  0  0
 37 38  1  0  0  0  0
 37 72  1  0  0  0  0
 37 73  1  0  0  0  0
 38 39  2  0  0  0  0
 38 42  1  0  0  0  0
 39 40  1  0  0  0  0
 39 74  1  0  0  0  0
 40 41  2  0  0  0  0
 40 75  1  0  0  0  0
 41 43  1  0  0  0  0
 41 76  1  0  0  0  0
 42 43  2  0  0  0  0
 42 77  1  0  0  0  0
 43 78  1  0  0  0  0
M  CHG  1  26   1
M  END
$$$$
