GC2
 OpenBabel04051920293D

 35 36  0  0  1  0  0  0  0  0999 V2000
    0.4299  -32.3939   32.4014 O   0  0  0  0  0  0  0  0  0  0  0  0
    1.5726  -32.4763   31.9926 C   0  0  0  0  0  0  0  0  0  0  0  0
    1.9643  -33.2133   30.7198 C   0  0  0  0  0  0  0  0  0  0  0  0
    2.6235  -31.8697   32.6494 N   0  0  0  0  0  0  0  0  0  0  0  0
    2.5393  -31.2241   33.9787 C   0  0  2  0  0  0  0  0  0  0  0  0
    2.2736  -32.2868   35.0689 C   0  0  1  0  0  0  0  0  0  0  0  0
    3.5168  -32.7102   35.6151 O   0  0  0  0  0  0  0  0  0  0  0  0
    1.3547  -31.7344   36.1562 C   0  0  2  0  0  0  0  0  0  0  0  0
    1.2024  -32.7085   37.1853 O   0  0  0  0  0  0  0  0  0  0  0  0
    1.5160  -30.0646   34.0633 C   0  0  0  0  0  0  0  0  0  0  0  0
    0.1273  -30.6042   34.2796 N   0  3  1  0  0  0  0  0  0  0  0  0
   -0.0090  -31.4458   35.5220 C   0  0  2  0  0  0  0  0  0  0  0  0
   -0.9713  -29.5746   34.2954 C   0  0  0  0  0  0  0  0  0  0  0  0
   -1.8779  -29.9555   35.4580 C   0  0  0  0  0  0  0  0  0  0  0  0
   -0.9632  -30.6717   36.4319 C   0  0  2  0  0  0  0  0  0  0  0  0
   -0.2675  -29.6913   37.1981 O   0  0  0  0  0  0  0  0  0  0  0  0
    3.0542  -33.2139   30.5740 H   0  0  0  0  0  0  0  0  0  0  0  0
    1.5041  -32.7156   29.8677 H   0  0  0  0  0  0  0  0  0  0  0  0
    1.6296  -34.2543   30.7577 H   0  0  0  0  0  0  0  0  0  0  0  0
    3.5591  -32.0230   32.2906 H   0  0  0  0  0  0  0  0  0  0  0  0
    3.5313  -30.7742   34.1470 H   0  0  0  0  0  0  0  0  0  0  0  0
    1.7999  -33.1668   34.6230 H   0  0  0  0  0  0  0  0  0  0  0  0
    3.3121  -33.3842   36.2938 H   0  0  0  0  0  0  0  0  0  0  0  0
    1.8206  -30.8455   36.5990 H   0  0  0  0  0  0  0  0  0  0  0  0
    0.6199  -32.3483   37.8764 H   0  0  0  0  0  0  0  0  0  0  0  0
    1.5059  -29.4721   33.1369 H   0  0  0  0  0  0  0  0  0  0  0  0
    1.7436  -29.4034   34.9071 H   0  0  0  0  0  0  0  0  0  0  0  0
   -0.4800  -32.3885   35.2121 H   0  0  0  0  0  0  0  0  0  0  0  0
   -1.4851  -29.6262   33.3317 H   0  0  0  0  0  0  0  0  0  0  0  0
   -0.5251  -28.5850   34.4336 H   0  0  0  0  0  0  0  0  0  0  0  0
   -2.6827  -30.6138   35.1115 H   0  0  0  0  0  0  0  0  0  0  0  0
   -2.3285  -29.0582   35.8946 H   0  0  0  0  0  0  0  0  0  0  0  0
   -1.5167  -31.3350   37.1064 H   0  0  0  0  0  0  0  0  0  0  0  0
    0.2968  -30.1237   37.8643 H   0  0  0  0  0  0  0  0  0  0  0  0
   -0.0489  -31.2447   33.4644 H   0  0  0  0  0  0  0  0  0  0  0  0
  1  2  2  0  0  0  0
  2  3  1  0  0  0  0
  2  4  1  0  0  0  0
  3 17  1  0  0  0  0
  3 18  1  0  0  0  0
  3 19  1  0  0  0  0
  4  5  1  0  0  0  0
  4 20  1  0  0  0  0
  5  6  1  0  0  0  0
  5 10  1  0  0  0  0
  5 21  1  1  0  0  0
  6  7  1  0  0  0  0
  6  8  1  0  0  0  0
  6 22  1  6  0  0  0
  7 23  1  0  0  0  0
  8  9  1  0  0  0  0
  8 12  1  0  0  0  0
  8 24  1  1  0  0  0
  9 25  1  0  0  0  0
 10 11  1  0  0  0  0
 10 26  1  0  0  0  0
 10 27  1  0  0  0  0
 11 12  1  0  0  0  0
 11 13  1  0  0  0  0
 11 35  1  6  0  0  0
 12 15  1  0  0  0  0
 12 28  1  6  0  0  0
 13 14  1  0  0  0  0
 13 29  1  0  0  0  0
 13 30  1  0  0  0  0
 14 15  1  0  0  0  0
 14 31  1  0  0  0  0
 14 32  1  0  0  0  0
 15 16  1  0  0  0  0
 15 33  1  1  0  0  0
 16 34  1  0  0  0  0
M  CHG  1  11   1
M  END
$$$$
