GDM
 OpenBabel04051920023D

 90 91  0  0  1  0  0  0  0  0999 V2000
  -25.8831   34.4170   -5.5460 C   0  0  0  0  0  0  0  0  0  0  0  0
  -26.1330   34.1843   -4.1671 C   0  0  0  0  0  0  0  0  0  0  0  0
  -25.7422   33.0076   -3.4676 C   0  0  0  0  0  0  0  0  0  0  0  0
  -25.0708   32.0010   -4.2185 C   0  0  0  0  0  0  0  0  0  0  0  0
  -24.8466   32.1882   -5.5867 C   0  0  0  0  0  0  0  0  0  0  0  0
  -25.2626   33.3461   -6.2690 C   0  0  0  0  0  0  0  0  0  0  0  0
  -26.2314   35.7861   -6.1642 C   0  0  0  0  0  0  0  0  0  0  0  0
  -25.1394   36.8864   -6.2570 C   0  0  2  0  0  0  0  0  0  0  0  0
  -24.0173   36.4690   -7.2260 C   0  0  0  0  0  0  0  0  0  0  0  0
  -22.7001   37.2533   -7.1668 C   0  0  1  0  0  0  0  0  0  0  0  0
  -21.6609   36.6550   -8.1651 C   0  0  1  0  0  0  0  0  0  0  0  0
  -21.0970   35.2630   -7.8308 C   0  0  2  0  0  0  0  0  0  0  0  0
  -20.5174   35.2032   -6.4148 C   0  0  0  0  0  0  0  0  0  0  0  0
  -20.9423   34.0565   -5.4600 C   0  0  2  0  0  0  0  0  0  0  0  0
  -19.8697   34.0361   -4.3256 C   0  0  1  0  0  0  0  0  0  0  0  0
  -20.4121   34.1657   -2.8549 C   0  0  2  0  0  0  0  0  0  0  0  0
  -21.2760   35.4356   -2.7208 C   0  0  0  0  0  0  0  0  0  0  0  0
  -22.6516   35.6736   -2.1039 C   0  0  0  0  0  0  0  0  0  0  0  0
  -23.6482   34.6054   -1.7613 C   0  0  0  0  0  0  0  0  0  0  0  0
  -24.9613   35.1277   -1.0971 C   0  0  1  0  0  0  0  0  0  0  0  0
  -25.9306   33.8983   -0.9844 C   0  0  1  0  0  0  0  0  0  0  0  0
  -25.8411   32.8919   -2.0727 N   0  0  0  0  0  0  0  0  0  0  0  0
  -26.8002   35.1148   -3.3961 O   0  0  0  0  0  0  0  0  0  0  0  0
  -24.1687   31.1868   -6.3036 O   0  0  0  0  0  0  0  0  0  0  0  0
  -24.9440   33.4639   -7.6075 O   0  0  0  0  0  0  0  0  0  0  0  0
  -26.0723   33.5123   -8.4771 C   0  0  0  0  0  0  0  0  0  0  0  0
  -24.6354   37.2470   -4.8768 C   0  0  0  0  0  0  0  0  0  0  0  0
  -22.9916   38.6104   -7.5387 O   0  0  0  0  0  0  0  0  0  0  0  0
  -22.0034   39.5589   -7.1446 C   0  0  0  0  0  0  0  0  0  0  0  0
  -22.2450   36.5706   -9.4744 O   0  0  0  0  0  0  0  0  0  0  0  0
  -19.9566   34.9702   -8.8307 C   0  0  0  0  0  0  0  0  0  0  0  0
  -21.1807   32.7100   -6.1359 C   0  0  0  0  0  0  0  0  0  0  0  0
  -19.0088   32.8555   -4.4137 O   0  0  0  0  0  0  0  0  0  0  0  0
  -17.7583   33.0443   -4.9382 C   0  0  0  0  0  0  0  0  0  0  0  0
  -17.3219   34.0255   -5.4689 O   0  0  0  0  0  0  0  0  0  0  0  0
  -17.0380   31.9195   -4.7253 N   0  0  0  0  0  0  0  0  0  0  0  0
  -19.1669   34.3873   -2.1322 O   0  0  0  0  0  0  0  0  0  0  0  0
  -19.2494   34.6192   -0.7416 C   0  0  0  0  0  0  0  0  0  0  0  0
  -24.6443   35.8586    0.2408 C   0  0  0  0  0  0  0  0  0  0  0  0
  -25.5761   33.1296    0.1701 O   0  0  0  0  0  0  0  0  0  0  0  0
  -24.6754   31.1336   -3.6946 H   0  0  0  0  0  0  0  0  0  0  0  0
  -27.0931   36.2041   -5.6329 H   0  0  0  0  0  0  0  0  0  0  0  0
  -26.6541   35.6978   -7.1558 H   0  0  0  0  0  0  0  0  0  0  0  0
  -25.6142   37.7884   -6.6727 H   0  0  0  0  0  0  0  0  0  0  0  0
  -24.4342   36.5519   -8.2378 H   0  0  0  0  0  0  0  0  0  0  0  0
  -23.7716   35.4254   -7.0498 H   0  0  0  0  0  0  0  0  0  0  0  0
  -22.3183   37.2426   -6.1396 H   0  0  0  0  0  0  0  0  0  0  0  0
  -20.8260   37.3510   -8.2644 H   0  0  0  0  0  0  0  0  0  0  0  0
  -21.8792   34.5157   -7.9950 H   0  0  0  0  0  0  0  0  0  0  0  0
  -20.7428   36.1265   -5.8757 H   0  0  0  0  0  0  0  0  0  0  0  0
  -19.4259   35.2259   -6.4961 H   0  0  0  0  0  0  0  0  0  0  0  0
  -21.9161   34.3474   -5.0461 H   0  0  0  0  0  0  0  0  0  0  0  0
  -19.2357   34.9337   -4.4358 H   0  0  0  0  0  0  0  0  0  0  0  0
  -20.8567   33.2177   -2.5152 H   0  0  0  0  0  0  0  0  0  0  0  0
  -21.3224   35.9093   -3.7063 H   0  0  0  0  0  0  0  0  0  0  0  0
  -20.6689   36.1588   -2.1664 H   0  0  0  0  0  0  0  0  0  0  0  0
  -23.1607   36.3082   -2.8309 H   0  0  0  0  0  0  0  0  0  0  0  0
  -22.5108   36.3092   -1.2369 H   0  0  0  0  0  0  0  0  0  0  0  0
  -23.2370   33.8203   -1.1291 H   0  0  0  0  0  0  0  0  0  0  0  0
  -23.9060   34.1772   -2.7211 H   0  0  0  0  0  0  0  0  0  0  0  0
  -25.4398   35.9024   -1.7084 H   0  0  0  0  0  0  0  0  0  0  0  0
  -26.9598   34.2286   -0.8282 H   0  0  0  0  0  0  0  0  0  0  0  0
  -26.1329   31.9886   -1.7390 H   0  0  0  0  0  0  0  0  0  0  0  0
  -26.8904   35.9617   -3.8536 H   0  0  0  0  0  0  0  0  0  0  0  0
  -23.9131   30.4481   -5.7350 H   0  0  0  0  0  0  0  0  0  0  0  0
  -25.7208   33.6471   -9.5053 H   0  0  0  0  0  0  0  0  0  0  0  0
  -26.7264   34.3571   -8.2988 H   0  0  0  0  0  0  0  0  0  0  0  0
  -26.6696   32.6026   -8.4078 H   0  0  0  0  0  0  0  0  0  0  0  0
  -25.4512   37.5494   -4.2144 H   0  0  0  0  0  0  0  0  0  0  0  0
  -23.9200   38.0723   -4.8990 H   0  0  0  0  0  0  0  0  0  0  0  0
  -24.1483   36.3673   -4.4676 H   0  0  0  0  0  0  0  0  0  0  0  0
  -22.3084   40.5243   -7.5560 H   0  0  0  0  0  0  0  0  0  0  0  0
  -21.0103   39.3286   -7.5421 H   0  0  0  0  0  0  0  0  0  0  0  0
  -21.9545   39.6488   -6.0547 H   0  0  0  0  0  0  0  0  0  0  0  0
  -22.6955   37.4097   -9.6174 H   0  0  0  0  0  0  0  0  0  0  0  0
  -20.3136   34.9827   -9.8644 H   0  0  0  0  0  0  0  0  0  0  0  0
  -19.4947   33.9976   -8.6397 H   0  0  0  0  0  0  0  0  0  0  0  0
  -19.1725   35.7350   -8.7474 H   0  0  0  0  0  0  0  0  0  0  0  0
  -21.9607   32.7817   -6.9006 H   0  0  0  0  0  0  0  0  0  0  0  0
  -21.5410   31.9816   -5.4021 H   0  0  0  0  0  0  0  0  0  0  0  0
  -20.2818   32.3169   -6.6152 H   0  0  0  0  0  0  0  0  0  0  0  0
  -16.0748   31.8812   -5.0543 H   0  0  0  0  0  0  0  0  0  0  0  0
  -17.4806   31.0975   -4.3498 H   0  0  0  0  0  0  0  0  0  0  0  0
  -18.2429   34.8818   -0.3997 H   0  0  0  0  0  0  0  0  0  0  0  0
  -19.5858   33.7155   -0.2374 H   0  0  0  0  0  0  0  0  0  0  0  0
  -19.8942   35.4607   -0.4800 H   0  0  0  0  0  0  0  0  0  0  0  0
  -24.1374   36.8202    0.0609 H   0  0  0  0  0  0  0  0  0  0  0  0
  -23.9727   35.2661    0.8682 H   0  0  0  0  0  0  0  0  0  0  0  0
  -25.5399   36.1048    0.8224 H   0  0  0  0  0  0  0  0  0  0  0  0
  -25.5098   33.7383    0.9265 H   0  0  0  0  0  0  0  0  0  0  0  0
  1  2  2  0  0  0  0
  1  6  1  0  0  0  0
  1  7  1  0  0  0  0
  2  3  1  0  0  0  0
  2 23  1  0  0  0  0
  3  4  2  0  0  0  0
  3 22  1  0  0  0  0
  4  5  1  0  0  0  0
  4 41  1  0  0  0  0
  5  6  2  0  0  0  0
  5 24  1  0  0  0  0
  6 25  1  0  0  0  0
  7  8  1  0  0  0  0
  7 42  1  0  0  0  0
  7 43  1  0  0  0  0
  8  9  1  0  0  0  0
  8 27  1  0  0  0  0
  8 44  1  6  0  0  0
  9 10  1  0  0  0  0
  9 45  1  0  0  0  0
  9 46  1  0  0  0  0
 10 11  1  0  0  0  0
 10 28  1  0  0  0  0
 10 47  1  1  0  0  0
 11 12  1  0  0  0  0
 11 30  1  0  0  0  0
 11 48  1  6  0  0  0
 12 13  1  0  0  0  0
 12 31  1  0  0  0  0
 12 49  1  6  0  0  0
 13 14  1  0  0  0  0
 13 50  1  0  0  0  0
 13 51  1  0  0  0  0
 14 15  1  0  0  0  0
 14 32  1  0  0  0  0
 14 52  1  1  0  0  0
 15 16  1  0  0  0  0
 15 33  1  0  0  0  0
 15 53  1  6  0  0  0
 16 17  1  0  0  0  0
 16 37  1  0  0  0  0
 16 54  1  1  0  0  0
 17 18  1  0  0  0  0
 17 55  1  0  0  0  0
 17 56  1  0  0  0  0
 18 19  1  0  0  0  0
 18 57  1  0  0  0  0
 18 58  1  0  0  0  0
 19 20  1  0  0  0  0
 19 59  1  0  0  0  0
 19 60  1  0  0  0  0
 20 21  1  0  0  0  0
 20 39  1  0  0  0  0
 20 61  1  6  0  0  0
 21 22  1  0  0  0  0
 21 40  1  0  0  0  0
 21 62  1  1  0  0  0
 22 63  1  0  0  0  0
 23 64  1  0  0  0  0
 24 65  1  0  0  0  0
 25 26  1  0  0  0  0
 26 66  1  0  0  0  0
 26 67  1  0  0  0  0
 26 68  1  0  0  0  0
 27 69  1  0  0  0  0
 27 70  1  0  0  0  0
 27 71  1  0  0  0  0
 28 29  1  0  0  0  0
 29 72  1  0  0  0  0
 29 73  1  0  0  0  0
 29 74  1  0  0  0  0
 30 75  1  0  0  0  0
 31 76  1  0  0  0  0
 31 77  1  0  0  0  0
 31 78  1  0  0  0  0
 32 79  1  0  0  0  0
 32 80  1  0  0  0  0
 32 81  1  0  0  0  0
 33 34  1  0  0  0  0
 34 35  2  0  0  0  0
 34 36  1  0  0  0  0
 36 82  1  0  0  0  0
 36 83  1  0  0  0  0
 37 38  1  0  0  0  0
 38 84  1  0  0  0  0
 38 85  1  0  0  0  0
 38 86  1  0  0  0  0
 39 87  1  0  0  0  0
 39 88  1  0  0  0  0
 39 89  1  0  0  0  0
 40 90  1  0  0  0  0
M  END
$$$$
