GDP
 OpenBabel04051920033D

 40 42  0  0  1  0  0  0  0  0999 V2000
   -7.5822   25.9060  -18.9184 P   0  0  0  0  0  0  0  0  0  0  0  0
   -8.4957   27.1215  -18.9437 O   0  0  0  0  0  0  0  0  0  0  0  0
   -8.3323   24.5962  -18.6549 O   0  0  0  0  0  0  0  0  0  0  0  0
   -6.3672   26.0511  -18.0006 O   0  0  0  0  0  0  0  0  0  0  0  0
   -6.9639   25.7249  -20.4018 O   0  0  0  0  0  0  0  0  0  0  0  0
   -6.7589   26.7494  -21.6102 P   0  0  2  0  0  0  0  0  0  0  0  0
   -5.8081   27.9083  -21.3504 O   0  0  0  0  0  0  0  0  0  0  0  0
   -7.9981   26.9570  -22.4662 O   0  0  0  0  0  0  0  0  0  0  0  0
   -5.8509   25.7670  -22.5837 O   0  0  0  0  0  0  0  0  0  0  0  0
   -4.5907   25.3631  -22.0829 C   0  0  0  0  0  0  0  0  0  0  0  0
   -3.6865   24.9968  -23.2602 C   0  0  1  0  0  0  0  0  0  0  0  0
   -4.2025   23.8479  -23.9907 O   0  0  0  0  0  0  0  0  0  0  0  0
   -3.5583   26.1528  -24.2586 C   0  0  1  0  0  0  0  0  0  0  0  0
   -2.2247   26.1570  -24.8253 O   0  0  0  0  0  0  0  0  0  0  0  0
   -4.5329   25.7942  -25.3635 C   0  0  1  0  0  0  0  0  0  0  0  0
   -4.1435   26.3382  -26.6392 O   0  0  0  0  0  0  0  0  0  0  0  0
   -4.4553   24.2755  -25.3310 C   0  0  2  0  0  0  0  0  0  0  0  0
   -5.6043   23.6001  -25.8755 N   0  3  0  0  0  0  0  0  0  0  0  0
   -6.9215   23.9008  -25.6381 C   0  0  0  0  0  0  0  0  0  0  0  0
   -7.7433   23.1617  -26.3719 N   0  0  0  0  0  0  0  0  0  0  0  0
   -6.9178   22.3363  -27.0769 C   0  0  0  0  0  0  0  0  0  0  0  0
   -7.2499   21.2668  -28.0343 C   0  0  0  0  0  0  0  0  0  0  0  0
   -8.3839   20.9280  -28.3675 O   0  0  0  0  0  0  0  0  0  0  0  0
   -6.1186   20.6386  -28.5682 N   0  3  0  0  0  0  0  0  0  0  0  0
   -4.8113   20.9598  -28.2800 C   0  0  0  0  0  0  0  0  0  0  0  0
   -3.9053   20.2787  -28.8807 N   0  0  0  0  0  0  0  0  0  0  0  0
   -4.5706   21.9763  -27.3926 N   0  3  0  0  0  0  0  0  0  0  0  0
   -5.6054   22.6062  -26.8104 C   0  0  0  0  0  0  0  0  0  0  0  0
   -4.7260   24.5006  -21.4270 H   0  0  0  0  0  0  0  0  0  0  0  0
   -4.1077   26.1707  -21.5211 H   0  0  0  0  0  0  0  0  0  0  0  0
   -2.7001   24.6982  -22.8867 H   0  0  0  0  0  0  0  0  0  0  0  0
   -3.7524   27.1361  -23.8192 H   0  0  0  0  0  0  0  0  0  0  0  0
   -2.1778   26.9992  -25.3134 H   0  0  0  0  0  0  0  0  0  0  0  0
   -5.5360   26.1547  -25.1253 H   0  0  0  0  0  0  0  0  0  0  0  0
   -3.2792   25.9507  -26.8560 H   0  0  0  0  0  0  0  0  0  0  0  0
   -3.5769   23.9506  -25.9212 H   0  0  0  0  0  0  0  0  0  0  0  0
   -7.2288   24.6783  -24.9410 H   0  0  0  0  0  0  0  0  0  0  0  0
   -6.2901   19.8882  -29.2110 H   0  0  0  0  0  0  0  0  0  0  0  0
   -2.9920   20.6221  -28.5650 H   0  0  0  0  0  0  0  0  0  0  0  0
   -3.6066   22.1899  -27.1506 H   0  0  0  0  0  0  0  0  0  0  0  0
  1  2  2  0  0  0  0
  1  3  1  0  0  0  0
  1  4  1  0  0  0  0
  1  5  1  0  0  0  0
  6  5  1  1  0  0  0
  6  7  2  0  0  0  0
  6  8  1  0  0  0  0
  6  9  1  0  0  0  0
  9 10  1  0  0  0  0
 10 11  1  0  0  0  0
 10 29  1  0  0  0  0
 10 30  1  0  0  0  0
 11 12  1  0  0  0  0
 11 13  1  0  0  0  0
 11 31  1  1  0  0  0
 12 17  1  0  0  0  0
 13 14  1  0  0  0  0
 13 15  1  0  0  0  0
 13 32  1  1  0  0  0
 14 33  1  0  0  0  0
 15 16  1  0  0  0  0
 15 17  1  0  0  0  0
 15 34  1  1  0  0  0
 16 35  1  0  0  0  0
 17 18  1  0  0  0  0
 17 36  1  6  0  0  0
 18 19  2  0  0  0  0
 18 28  1  0  0  0  0
 19 20  1  0  0  0  0
 19 37  1  0  0  0  0
 20 21  2  0  0  0  0
 21 22  1  0  0  0  0
 21 28  1  0  0  0  0
 22 23  2  0  0  0  0
 22 24  1  0  0  0  0
 24 25  1  0  0  0  0
 24 38  1  0  0  0  0
 25 26  2  0  0  0  0
 25 27  1  0  0  0  0
 26 39  1  0  0  0  0
 27 28  2  0  0  0  0
 27 40  1  0  0  0  0
M  CHG  3  18   1  24   1  27   1
M  END
$$$$
