GDP
 OpenBabel04051919203D

 40 42  0  0  1  0  0  0  0  0999 V2000
   18.2637   65.4821  -14.1051 P   0  0  0  0  0  0  0  0  0  0  0  0
   17.8744   66.1694  -12.8013 O   0  0  0  0  0  0  0  0  0  0  0  0
   17.4220   65.9917  -15.2790 O   0  0  0  0  0  0  0  0  0  0  0  0
   18.3175   63.9694  -13.9829 O   0  0  0  0  0  0  0  0  0  0  0  0
   19.7871   65.9933  -14.4141 O   0  0  0  0  0  0  0  0  0  0  0  0
   20.8408   65.0180  -15.1549 P   0  0  2  0  0  0  0  0  0  0  0  0
   20.4335   64.6120  -16.5546 O   0  0  0  0  0  0  0  0  0  0  0  0
   21.5563   64.0825  -14.2053 O   0  0  0  0  0  0  0  0  0  0  0  0
   22.0756   66.1022  -15.4835 O   0  0  0  0  0  0  0  0  0  0  0  0
   21.7369   67.1902  -16.3228 C   0  0  0  0  0  0  0  0  0  0  0  0
   22.9977   67.9721  -16.7154 C   0  0  1  0  0  0  0  0  0  0  0  0
   23.6648   68.5463  -15.5578 O   0  0  0  0  0  0  0  0  0  0  0  0
   24.0547   67.1556  -17.4793 C   0  0  2  0  0  0  0  0  0  0  0  0
   23.5881   65.9774  -18.1147 O   0  0  0  0  0  0  0  0  0  0  0  0
   25.0963   66.8438  -16.4189 C   0  0  1  0  0  0  0  0  0  0  0  0
   26.4022   66.6624  -16.9902 O   0  0  0  0  0  0  0  0  0  0  0  0
   25.0233   68.1067  -15.5790 C   0  0  2  0  0  0  0  0  0  0  0  0
   25.5507   67.9806  -14.2240 N   0  3  0  0  0  0  0  0  0  0  0  0
   25.1198   67.0474  -13.2867 C   0  0  0  0  0  0  0  0  0  0  0  0
   25.7848   67.1814  -12.1477 N   0  0  0  0  0  0  0  0  0  0  0  0
   26.6121   68.2585  -12.3222 C   0  0  0  0  0  0  0  0  0  0  0  0
   27.5295   68.9095  -11.4018 C   0  0  0  0  0  0  0  0  0  0  0  0
   27.7740   68.5182  -10.2447 O   0  0  0  0  0  0  0  0  0  0  0  0
   28.2308   69.9777  -11.9459 N   0  3  0  0  0  0  0  0  0  0  0  0
   28.1804   70.3407  -13.2851 C   0  0  0  0  0  0  0  0  0  0  0  0
   28.9972   71.2718  -13.6549 N   0  0  0  0  0  0  0  0  0  0  0  0
   27.2826   69.7061  -14.1177 N   0  3  0  0  0  0  0  0  0  0  0  0
   26.5207   68.7193  -13.6154 C   0  0  0  0  0  0  0  0  0  0  0  0
   21.0558   67.8306  -15.7619 H   0  0  0  0  0  0  0  0  0  0  0  0
   21.2397   66.8424  -17.2359 H   0  0  0  0  0  0  0  0  0  0  0  0
   22.6859   68.8257  -17.3282 H   0  0  0  0  0  0  0  0  0  0  0  0
   24.5058   67.7769  -18.2685 H   0  0  0  0  0  0  0  0  0  0  0  0
   23.1303   65.4337  -17.4271 H   0  0  0  0  0  0  0  0  0  0  0  0
   24.8208   65.9385  -15.8695 H   0  0  0  0  0  0  0  0  0  0  0  0
   26.9818   66.3755  -16.2628 H   0  0  0  0  0  0  0  0  0  0  0  0
   25.6142   68.8982  -16.0563 H   0  0  0  0  0  0  0  0  0  0  0  0
   24.3418   66.3089  -13.4844 H   0  0  0  0  0  0  0  0  0  0  0  0
   28.9139   70.4152  -11.3532 H   0  0  0  0  0  0  0  0  0  0  0  0
   28.8600   71.4341  -14.6512 H   0  0  0  0  0  0  0  0  0  0  0  0
   27.2350   70.0153  -15.0656 H   0  0  0  0  0  0  0  0  0  0  0  0
  1  2  2  0  0  0  0
  1  3  1  0  0  0  0
  1  4  1  0  0  0  0
  1  5  1  0  0  0  0
  6  5  1  1  0  0  0
  6  7  2  0  0  0  0
  6  8  1  0  0  0  0
  6  9  1  0  0  0  0
  9 10  1  0  0  0  0
 10 11  1  0  0  0  0
 10 29  1  0  0  0  0
 10 30  1  0  0  0  0
 11 12  1  0  0  0  0
 11 13  1  0  0  0  0
 11 31  1  6  0  0  0
 12 17  1  0  0  0  0
 13 14  1  0  0  0  0
 13 15  1  0  0  0  0
 13 32  1  6  0  0  0
 14 33  1  0  0  0  0
 15 16  1  0  0  0  0
 15 17  1  0  0  0  0
 15 34  1  1  0  0  0
 16 35  1  0  0  0  0
 17 18  1  0  0  0  0
 17 36  1  6  0  0  0
 18 19  2  0  0  0  0
 18 28  1  0  0  0  0
 19 20  1  0  0  0  0
 19 37  1  0  0  0  0
 20 21  2  0  0  0  0
 21 22  1  0  0  0  0
 21 28  1  0  0  0  0
 22 23  2  0  0  0  0
 22 24  1  0  0  0  0
 24 25  1  0  0  0  0
 24 38  1  0  0  0  0
 25 26  2  0  0  0  0
 25 27  1  0  0  0  0
 26 39  1  0  0  0  0
 27 28  2  0  0  0  0
 27 40  1  0  0  0  0
M  CHG  3  18   1  24   1  27   1
M  END
$$$$
