GG9
 OpenBabel04051918483D

 36 36  0  0  1  0  0  0  0  0999 V2000
 -127.7933   32.0319  127.7244 C   0  0  0  0  0  0  0  0  0  0  0  0
 -127.4794   32.3201  126.4474 C   0  0  0  0  0  0  0  0  0  0  0  0
 -128.4672   32.2947  125.2686 C   0  0  2  0  0  0  0  0  0  0  0  0
 -129.9312   32.3331  125.8093 C   0  0  2  0  0  0  0  0  0  0  0  0
 -130.1777   31.2824  126.9242 C   0  0  1  0  0  0  0  0  0  0  0  0
 -129.2175   31.6285  128.1223 C   0  0  0  0  0  0  0  0  0  0  0  0
 -126.6932   32.0358  128.8320 C   0  0  0  0  0  0  0  0  0  0  0  0
 -128.2713   31.1367  124.4642 O   0  0  0  0  0  0  0  0  0  0  0  0
 -130.8725   32.2696  124.7108 O   0  0  0  0  0  0  0  0  0  0  0  0
 -131.5786   31.4231  127.3015 O   0  0  0  0  0  0  0  0  0  0  0  0
 -125.4793   31.9103  128.4743 O   0  0  0  0  0  0  0  0  0  0  0  0
 -127.1099   32.2505  130.0094 O   0  0  0  0  0  0  0  0  0  0  0  0
 -127.3748   31.1768  123.0802 P   0  0  0  0  0  0  0  0  0  0  0  0
 -125.9138   31.2270  123.5322 O   0  0  0  0  0  0  0  0  0  0  0  0
 -127.7930   32.4112  122.3154 O   0  0  0  0  0  0  0  0  0  0  0  0
 -127.6987   29.8647  122.3401 O   0  0  0  0  0  0  0  0  0  0  0  0
 -132.3535   30.1413  127.3513 C   0  0  2  0  0  0  0  0  0  0  0  0
 -132.6688   29.6326  125.9301 C   0  0  0  0  0  0  0  0  0  0  0  0
 -133.7935   30.5830  127.9659 C   0  0  0  0  0  0  0  0  0  0  0  0
 -133.8476   30.8916  129.2091 O   0  0  0  0  0  0  0  0  0  0  0  0
 -134.7267   30.9090  127.1322 O   0  0  0  0  0  0  0  0  0  0  0  0
 -131.8900   27.7006  128.5010 P   0  0  0  0  0  0  0  0  0  0  0  0
 -131.9356   26.9462  127.1784 O   0  0  0  0  0  0  0  0  0  0  0  0
 -133.2017   27.6140  129.2545 O   0  0  0  0  0  0  0  0  0  0  0  0
 -130.6938   27.2857  129.3464 O   0  0  0  0  0  0  0  0  0  0  0  0
 -131.6217   29.2695  128.1969 O   0  0  0  0  0  0  0  0  0  0  0  0
 -131.5515   29.1898  125.2842 F   0  0  0  0  0  0  0  0  0  0  0  0
 -133.5943   28.6474  125.8252 F   0  0  0  0  0  0  0  0  0  0  0  0
 -126.4649   32.5769  126.1621 H   0  0  0  0  0  0  0  0  0  0  0  0
 -128.3431   33.2046  124.6704 H   0  0  0  0  0  0  0  0  0  0  0  0
 -130.1496   33.3089  126.2758 H   0  0  0  0  0  0  0  0  0  0  0  0
 -129.9632   30.2719  126.5648 H   0  0  0  0  0  0  0  0  0  0  0  0
 -129.6423   32.4581  128.7070 H   0  0  0  0  0  0  0  0  0  0  0  0
 -129.1646   30.7790  128.8130 H   0  0  0  0  0  0  0  0  0  0  0  0
 -131.7526   32.2013  125.1042 H   0  0  0  0  0  0  0  0  0  0  0  0
 -133.0435   30.4436  125.2741 H   0  0  0  0  0  0  0  0  0  0  0  0
  1  2  2  0  0  0  0
  1  6  1  0  0  0  0
  1  7  1  0  0  0  0
  2  3  1  0  0  0  0
  2 29  1  0  0  0  0
  3  4  1  0  0  0  0
  3  8  1  0  0  0  0
  3 30  1  6  0  0  0
  4  5  1  0  0  0  0
  4  9  1  0  0  0  0
  4 31  1  1  0  0  0
  5  6  1  0  0  0  0
  5 10  1  0  0  0  0
  5 32  1  6  0  0  0
  6 33  1  0  0  0  0
  6 34  1  0  0  0  0
  7 11  2  0  0  0  0
  7 12  1  0  0  0  0
  8 13  1  0  0  0  0
  9 35  1  0  0  0  0
 13 14  2  0  0  0  0
 13 15  1  0  0  0  0
 13 16  1  0  0  0  0
 17 10  1  6  0  0  0
 17 18  1  0  0  0  0
 17 19  1  0  0  0  0
 17 26  1  0  0  0  0
 18 27  1  0  0  0  0
 18 28  1  0  0  0  0
 18 36  1  0  0  0  0
 19 20  2  0  0  0  0
 19 21  1  0  0  0  0
 22 23  2  0  0  0  0
 22 24  1  0  0  0  0
 22 25  1  0  0  0  0
 22 26  1  0  0  0  0
M  END
$$$$
