GI2
 OpenBabel04051918223D

 36 37  0  0  1  0  0  0  0  0999 V2000
   -1.5763    8.8235   13.6600 C   0  0  0  0  0  0  0  0  0  0  0  0
   -0.5175    7.7535   13.7659 C   0  0  0  0  0  0  0  0  0  0  0  0
    0.4383    6.1071   15.1021 C   0  0  0  0  0  0  0  0  0  0  0  0
   -0.6425   10.6114   10.5821 C   0  0  2  0  0  0  0  0  0  0  0  0
    0.2553   11.4579    9.6988 C   0  0  1  0  0  0  0  0  0  0  0  0
   -0.3553   11.7042    8.3057 C   0  0  2  0  0  0  0  0  0  0  0  0
   -1.2275   10.5016    7.8635 C   0  0  1  0  0  0  0  0  0  0  0  0
   -2.4090   10.3813    8.8667 C   0  0  1  0  0  0  0  0  0  0  0  0
   -3.4130    9.2987    8.4386 C   0  0  0  0  0  0  0  0  0  0  0  0
    0.5575   12.6856   10.3690 O   0  0  0  0  0  0  0  0  0  0  0  0
    0.7152   11.9279    7.3848 O   0  0  0  0  0  0  0  0  0  0  0  0
   -1.6876   10.7066    6.5284 O   0  0  0  0  0  0  0  0  0  0  0  0
   -1.8495   10.1492   10.2203 N   0  3  1  0  0  0  0  0  0  0  0  0
   -2.8512    7.9962    8.5650 O   0  0  0  0  0  0  0  0  0  0  0  0
   -0.4444   10.2170   11.8411 N   0  3  0  0  0  0  0  0  0  0  0  0
   -1.5006    9.4394   12.3103 C   0  0  1  0  0  0  0  0  0  0  0  0
   -2.3876    9.3922   11.2608 C   0  0  0  0  0  0  0  0  0  0  0  0
   -0.3658    7.2968   15.0390 O   0  0  0  0  0  0  0  0  0  0  0  0
    0.0850    7.3132   12.8034 O   0  0  0  0  0  0  0  0  0  0  0  0
   -1.4487    9.6075   14.4073 H   0  0  0  0  0  0  0  0  0  0  0  0
   -2.5613    8.3505   13.7696 H   0  0  0  0  0  0  0  0  0  0  0  0
    0.6000    5.8364   16.1486 H   0  0  0  0  0  0  0  0  0  0  0  0
    1.4161    6.2460   14.6269 H   0  0  0  0  0  0  0  0  0  0  0  0
   -0.1068    5.2920   14.6144 H   0  0  0  0  0  0  0  0  0  0  0  0
    1.1906   10.8896    9.6114 H   0  0  0  0  0  0  0  0  0  0  0  0
   -0.9621   12.6186    8.3103 H   0  0  0  0  0  0  0  0  0  0  0  0
   -0.6127    9.5922    7.8730 H   0  0  0  0  0  0  0  0  0  0  0  0
   -2.9478   11.3399    8.8918 H   0  0  0  0  0  0  0  0  0  0  0  0
   -3.7771    9.4431    7.4168 H   0  0  0  0  0  0  0  0  0  0  0  0
   -4.2952    9.3425    9.0871 H   0  0  0  0  0  0  0  0  0  0  0  0
   -0.2325   13.2535   10.3665 H   0  0  0  0  0  0  0  0  0  0  0  0
    0.3302   12.1676    6.5201 H   0  0  0  0  0  0  0  0  0  0  0  0
   -2.1410    9.8994    6.2099 H   0  0  0  0  0  0  0  0  0  0  0  0
   -2.0976    7.8855    7.9524 H   0  0  0  0  0  0  0  0  0  0  0  0
   -3.3347    8.8910   11.1392 H   0  0  0  0  0  0  0  0  0  0  0  0
    0.4092   10.4222   12.3580 H   0  0  0  0  0  0  0  0  0  0  0  0
  1  2  1  0  0  0  0
  1 20  1  0  0  0  0
  1 21  1  0  0  0  0
  2 18  1  0  0  0  0
  2 19  2  0  0  0  0
  3 18  1  0  0  0  0
  3 22  1  0  0  0  0
  3 23  1  0  0  0  0
  3 24  1  0  0  0  0
  4  5  1  0  0  0  0
  4 13  1  0  0  0  0
  4 15  1  1  0  0  0
  5  6  1  0  0  0  0
  5 10  1  0  0  0  0
  5 25  1  6  0  0  0
  6  7  1  0  0  0  0
  6 11  1  0  0  0  0
  6 26  1  1  0  0  0
  7  8  1  0  0  0  0
  7 12  1  0  0  0  0
  7 27  1  1  0  0  0
  8  9  1  0  0  0  0
  8 13  1  0  0  0  0
  8 28  1  1  0  0  0
  9 14  1  0  0  0  0
  9 29  1  0  0  0  0
  9 30  1  0  0  0  0
 10 31  1  0  0  0  0
 11 32  1  0  0  0  0
 12 33  1  0  0  0  0
 13 17  1  6  0  0  0
 14 34  1  0  0  0  0
 15 16  1  0  0  0  0
 15 36  1  0  0  0  0
 16  1  1  6  0  0  0
 16 17  1  0  0  0  0
 17 35  1  0  0  0  0
M  CHG  2  13   1  15   1
M  END
$$$$
