GI3
 OpenBabel04051918223D

 29 30  0  0  1  0  0  0  0  0999 V2000
   34.1933   24.1782   38.7988 C   0  0  1  0  0  0  0  0  0  0  0  0
   35.0673   23.2306   38.0262 C   0  0  2  0  0  0  0  0  0  0  0  0
   36.2953   22.9925   38.7047 O   0  0  0  0  0  0  0  0  0  0  0  0
   35.3195   23.7323   36.5766 C   0  0  1  0  0  0  0  0  0  0  0  0
   32.9114   25.9498   39.2933 C   0  0  0  0  0  0  0  0  0  0  0  0
   35.5101   22.6102   35.7106 O   0  0  0  0  0  0  0  0  0  0  0  0
   34.1297   24.5891   36.0719 C   0  0  2  0  0  0  0  0  0  0  0  0
   33.7467   25.3831   38.3410 N   0  3  2  0  0  0  0  0  0  0  0  0
   34.3016   24.9337   34.7028 O   0  0  0  0  0  0  0  0  0  0  0  0
   34.0509   25.8504   36.9859 C   0  0  2  0  0  0  0  0  0  0  0  0
   33.0590   26.9163   36.4647 C   0  0  0  0  0  0  0  0  0  0  0  0
   31.6997   26.4994   36.5535 O   0  0  0  0  0  0  0  0  0  0  0  0
   33.6920   24.0274   40.0140 N   0  3  0  0  0  0  0  0  0  0  0  0
   32.8777   25.1106   40.3531 C   0  0  1  0  0  0  0  0  0  0  0  0
   32.1312   25.3140   41.6059 C   0  0  0  0  0  0  0  0  0  0  0  0
   31.2577   26.2074   41.5898 O   0  0  0  0  0  0  0  0  0  0  0  0
   32.4934   24.5424   42.5437 O   0  0  0  0  0  0  0  0  0  0  0  0
   34.5101   22.2923   38.0036 H   0  0  0  0  0  0  0  0  0  0  0  0
   36.7138   23.8426   38.9205 H   0  0  0  0  0  0  0  0  0  0  0  0
   36.2470   24.3149   36.5357 H   0  0  0  0  0  0  0  0  0  0  0  0
   32.4283   26.9016   39.1211 H   0  0  0  0  0  0  0  0  0  0  0  0
   35.7654   22.9609   34.8342 H   0  0  0  0  0  0  0  0  0  0  0  0
   33.2084   24.0023   36.1510 H   0  0  0  0  0  0  0  0  0  0  0  0
   33.4494   25.2532   34.3490 H   0  0  0  0  0  0  0  0  0  0  0  0
   35.0414   26.3294   37.0170 H   0  0  0  0  0  0  0  0  0  0  0  0
   33.2740   27.1974   35.4326 H   0  0  0  0  0  0  0  0  0  0  0  0
   33.1589   27.8226   37.0680 H   0  0  0  0  0  0  0  0  0  0  0  0
   31.5631   25.6436   36.1155 H   0  0  0  0  0  0  0  0  0  0  0  0
   33.8172   23.2460   40.6639 H   0  0  0  0  0  0  0  0  0  0  0  0
  1  2  1  0  0  0  0
  1  8  1  0  0  0  0
  1 13  1  6  0  0  0
  2  3  1  0  0  0  0
  2  4  1  0  0  0  0
  2 18  1  6  0  0  0
  3 19  1  0  0  0  0
  4  6  1  0  0  0  0
  4  7  1  0  0  0  0
  4 20  1  6  0  0  0
  5 14  1  0  0  0  0
  5 21  1  0  0  0  0
  6 22  1  0  0  0  0
  7  9  1  0  0  0  0
  7 10  1  0  0  0  0
  7 23  1  1  0  0  0
  8  5  1  6  0  0  0
  8 10  1  0  0  0  0
  9 24  1  0  0  0  0
 10 11  1  0  0  0  0
 10 25  1  1  0  0  0
 11 12  1  0  0  0  0
 11 26  1  0  0  0  0
 11 27  1  0  0  0  0
 12 28  1  0  0  0  0
 13 14  1  0  0  0  0
 13 29  1  0  0  0  0
 14 15  1  1  0  0  0
 15 16  2  0  0  0  0
 15 17  1  0  0  0  0
M  CHG  2   8   1  13   1
M  END
$$$$
