GI4
 OpenBabel04051918223D

 32 33  0  0  1  0  0  0  0  0999 V2000
   -2.0596    9.3392   13.8463 C   0  0  0  0  0  0  0  0  0  0  0  0
   -0.9829   10.7356   10.6688 C   0  0  2  0  0  0  0  0  0  0  0  0
   -0.0210   11.5161    9.8235 C   0  0  1  0  0  0  0  0  0  0  0  0
   -0.5799   11.7780    8.4222 C   0  0  2  0  0  0  0  0  0  0  0  0
   -1.4037   10.5638    7.9285 C   0  0  1  0  0  0  0  0  0  0  0  0
   -2.6322   10.3732    8.8702 C   0  0  1  0  0  0  0  0  0  0  0  0
   -3.5343    9.2174    8.4077 C   0  0  0  0  0  0  0  0  0  0  0  0
    0.3646   12.7334   10.4769 O   0  0  0  0  0  0  0  0  0  0  0  0
    0.5237   12.0232    7.5392 O   0  0  0  0  0  0  0  0  0  0  0  0
   -1.8059   10.8181    6.5797 O   0  0  0  0  0  0  0  0  0  0  0  0
   -2.1564   10.2230   10.2662 N   0  3  1  0  0  0  0  0  0  0  0  0
   -2.9365    7.9450    8.6166 O   0  0  0  0  0  0  0  0  0  0  0  0
   -0.8574   10.4502   11.9648 N   0  3  0  0  0  0  0  0  0  0  0  0
   -1.9151    9.6941   12.4218 C   0  0  2  0  0  0  0  0  0  0  0  0
   -2.7426    9.5333   11.3360 C   0  0  0  0  0  0  0  0  0  0  0  0
   -1.5026    7.9812   14.2046 C   0  0  0  0  0  0  0  0  0  0  0  0
   -0.3549    7.7282   13.7474 O   0  0  0  0  0  0  0  0  0  0  0  0
   -2.2578    7.2899   14.9433 O   0  0  0  0  0  0  0  0  0  0  0  0
   -3.1237    9.3935   14.1050 H   0  0  0  0  0  0  0  0  0  0  0  0
   -1.5290   10.0908   14.4397 H   0  0  0  0  0  0  0  0  0  0  0  0
    0.8744   10.8882    9.7607 H   0  0  0  0  0  0  0  0  0  0  0  0
   -1.2016   12.6820    8.4109 H   0  0  0  0  0  0  0  0  0  0  0  0
   -0.7578    9.6770    7.9277 H   0  0  0  0  0  0  0  0  0  0  0  0
   -3.2313   11.2917    8.8248 H   0  0  0  0  0  0  0  0  0  0  0  0
   -3.8091    9.3043    7.3529 H   0  0  0  0  0  0  0  0  0  0  0  0
   -4.4729    9.2370    8.9734 H   0  0  0  0  0  0  0  0  0  0  0  0
   -0.4000   13.3338   10.5050 H   0  0  0  0  0  0  0  0  0  0  0  0
    0.1576   12.1892    6.6539 H   0  0  0  0  0  0  0  0  0  0  0  0
   -2.2324   10.0194    6.2165 H   0  0  0  0  0  0  0  0  0  0  0  0
   -2.0940    7.8756    8.1375 H   0  0  0  0  0  0  0  0  0  0  0  0
   -3.6976    9.0476   11.2179 H   0  0  0  0  0  0  0  0  0  0  0  0
   -0.0490   10.6810   12.5273 H   0  0  0  0  0  0  0  0  0  0  0  0
  1 16  1  0  0  0  0
  1 19  1  0  0  0  0
  1 20  1  0  0  0  0
  2  3  1  0  0  0  0
  2 11  1  0  0  0  0
  2 13  1  1  0  0  0
  3  4  1  0  0  0  0
  3  8  1  0  0  0  0
  3 21  1  6  0  0  0
  4  5  1  0  0  0  0
  4  9  1  0  0  0  0
  4 22  1  1  0  0  0
  5  6  1  0  0  0  0
  5 10  1  0  0  0  0
  5 23  1  1  0  0  0
  6  7  1  0  0  0  0
  6 11  1  0  0  0  0
  6 24  1  6  0  0  0
  7 12  1  0  0  0  0
  7 25  1  0  0  0  0
  7 26  1  0  0  0  0
  8 27  1  0  0  0  0
  9 28  1  0  0  0  0
 10 29  1  0  0  0  0
 11 15  1  6  0  0  0
 12 30  1  0  0  0  0
 13 14  1  0  0  0  0
 13 32  1  0  0  0  0
 14  1  1  1  0  0  0
 14 15  1  0  0  0  0
 15 31  1  0  0  0  0
 16 17  2  0  0  0  0
 16 18  1  0  0  0  0
M  CHG  2  11   1  13   1
M  END
$$$$
