GK4
 OpenBabel04051920503D

 47 50  0  0  0  0  0  0  0  0999 V2000
   45.6619   34.9017   32.5819 O   0  0  0  0  0  0  0  0  0  0  0  0
   45.7198   33.7258   32.2316 C   0  0  0  0  0  0  0  0  0  0  0  0
   46.9172   33.0895   31.9901 N   0  0  0  0  0  0  0  0  0  0  0  0
   48.1364   33.8129   32.2106 C   0  0  0  0  0  0  0  0  0  0  0  0
   49.2454   33.2375   31.3993 C   0  0  0  0  0  0  0  0  0  0  0  0
   49.3202   33.6727   29.9618 C   0  0  0  0  0  0  0  0  0  0  0  0
   50.3177   34.1987   30.9640 C   0  0  0  0  0  0  0  0  0  0  0  0
   44.4661   32.9447   32.0628 C   0  0  0  0  0  0  0  0  0  0  0  0
   44.4445   31.5771   31.7626 C   0  0  0  0  0  0  0  0  0  0  0  0
   43.2252   30.9084   31.6566 C   0  0  0  0  0  0  0  0  0  0  0  0
   43.2608   33.6305   32.2607 C   0  0  0  0  0  0  0  0  0  0  0  0
   42.0497   32.9593   32.1666 C   0  0  0  0  0  0  0  0  0  0  0  0
   42.0226   31.6031   31.8374 C   0  0  0  0  0  0  0  0  0  0  0  0
   40.7471   30.9133   31.8185 C   0  0  0  0  0  0  0  0  0  0  0  0
   39.7405   31.1198   30.8576 C   0  0  0  0  0  0  0  0  0  0  0  0
   39.9508   32.0627   29.7070 C   0  0  0  0  0  0  0  0  0  0  0  0
   38.5211   30.4415   30.9742 C   0  0  0  0  0  0  0  0  0  0  0  0
   38.3139   29.5706   32.0565 C   0  0  0  0  0  0  0  0  0  0  0  0
   40.5088   30.0492   32.8855 C   0  0  0  0  0  0  0  0  0  0  0  0
   39.3014   29.3836   33.0078 C   0  0  0  0  0  0  0  0  0  0  0  0
   39.1743   28.5262   34.1569 C   0  0  0  0  0  0  0  0  0  0  0  0
   40.0405   28.2798   35.1206 N   0  0  0  0  0  0  0  0  0  0  0  0
   39.4294   27.3821   35.9642 N   0  0  0  0  0  0  0  0  0  0  0  0
   38.0036   27.8472   34.2987 O   0  0  0  0  0  0  0  0  0  0  0  0
   38.2479   27.1563   35.4517 C   0  0  0  0  0  0  0  0  0  0  0  0
   37.1581   26.3002   35.9040 C   0  0  0  0  0  0  0  0  0  0  0  0
   46.9694   32.1234   31.7123 H   0  0  0  0  0  0  0  0  0  0  0  0
   48.3741   33.8251   33.2782 H   0  0  0  0  0  0  0  0  0  0  0  0
   47.9760   34.8511   31.8938 H   0  0  0  0  0  0  0  0  0  0  0  0
   49.5265   32.2303   31.6786 H   0  0  0  0  0  0  0  0  0  0  0  0
   48.5146   34.3193   29.6239 H   0  0  0  0  0  0  0  0  0  0  0  0
   49.6577   32.9760   29.2085 H   0  0  0  0  0  0  0  0  0  0  0  0
   51.3439   33.8659   30.8958 H   0  0  0  0  0  0  0  0  0  0  0  0
   50.2205   35.2178   31.3285 H   0  0  0  0  0  0  0  0  0  0  0  0
   45.3474   30.9979   31.6240 H   0  0  0  0  0  0  0  0  0  0  0  0
   43.2125   29.8360   31.4604 H   0  0  0  0  0  0  0  0  0  0  0  0
   43.2519   34.6890   32.5068 H   0  0  0  0  0  0  0  0  0  0  0  0
   41.1197   33.4843   32.3734 H   0  0  0  0  0  0  0  0  0  0  0  0
   39.0657   32.0986   29.0651 H   0  0  0  0  0  0  0  0  0  0  0  0
   40.7992   31.7351   29.0986 H   0  0  0  0  0  0  0  0  0  0  0  0
   40.1295   33.0818   30.0687 H   0  0  0  0  0  0  0  0  0  0  0  0
   37.7345   30.5908   30.2353 H   0  0  0  0  0  0  0  0  0  0  0  0
   37.3515   29.0542   32.1398 H   0  0  0  0  0  0  0  0  0  0  0  0
   41.2759   29.9161   33.6482 H   0  0  0  0  0  0  0  0  0  0  0  0
   37.4165   25.7743   36.8257 H   0  0  0  0  0  0  0  0  0  0  0  0
   36.9219   25.5623   35.1292 H   0  0  0  0  0  0  0  0  0  0  0  0
   36.2631   26.9071   36.0810 H   0  0  0  0  0  0  0  0  0  0  0  0
  1  2  2  0  0  0  0
  2  3  1  0  0  0  0
  2  8  1  0  0  0  0
  3  4  1  0  0  0  0
  3 27  1  0  0  0  0
  4  5  1  0  0  0  0
  4 28  1  0  0  0  0
  4 29  1  0  0  0  0
  5  6  1  0  0  0  0
  5  7  1  0  0  0  0
  5 30  1  0  0  0  0
  6  7  1  0  0  0  0
  6 31  1  0  0  0  0
  6 32  1  0  0  0  0
  7 33  1  0  0  0  0
  7 34  1  0  0  0  0
  8  9  2  0  0  0  0
  8 11  1  0  0  0  0
  9 10  1  0  0  0  0
  9 35  1  0  0  0  0
 10 13  2  0  0  0  0
 10 36  1  0  0  0  0
 11 12  2  0  0  0  0
 11 37  1  0  0  0  0
 12 13  1  0  0  0  0
 12 38  1  0  0  0  0
 13 14  1  0  0  0  0
 14 15  2  0  0  0  0
 14 19  1  0  0  0  0
 15 16  1  0  0  0  0
 15 17  1  0  0  0  0
 16 39  1  0  0  0  0
 16 40  1  0  0  0  0
 16 41  1  0  0  0  0
 17 18  2  0  0  0  0
 17 42  1  0  0  0  0
 18 20  1  0  0  0  0
 18 43  1  0  0  0  0
 19 20  2  0  0  0  0
 19 44  1  0  0  0  0
 20 21  1  0  0  0  0
 21 22  2  0  0  0  0
 21 24  1  0  0  0  0
 22 23  1  0  0  0  0
 23 25  2  0  0  0  0
 24 25  1  0  0  0  0
 25 26  1  0  0  0  0
 26 45  1  0  0  0  0
 26 46  1  0  0  0  0
 26 47  1  0  0  0  0
M  END
$$$$
