GLU
 OpenBabel04051920343D

 18 17  0  0  1  0  0  0  0  0999 V2000
  -11.4914    0.6871  -22.9140 N   0  3  0  0  0  0  0  0  0  0  0  0
  -10.1246    1.1589  -23.3753 C   0  0  2  0  0  0  0  0  0  0  0  0
   -9.6896    2.5039  -22.6908 C   0  0  0  0  0  0  0  0  0  0  0  0
  -10.4014    2.7967  -21.6752 O   0  0  0  0  0  0  0  0  0  0  0  0
  -10.1387    1.2661  -24.8962 C   0  0  0  0  0  0  0  0  0  0  0  0
  -10.1031   -0.0873  -25.6126 C   0  0  0  0  0  0  0  0  0  0  0  0
   -8.7704   -0.8449  -25.4272 C   0  0  0  0  0  0  0  0  0  0  0  0
   -7.7722   -0.1365  -25.1360 O   0  0  0  0  0  0  0  0  0  0  0  0
   -8.8505   -2.0993  -25.5376 O   0  0  0  0  0  0  0  0  0  0  0  0
   -8.7726    3.1350  -23.2207 O   0  0  0  0  0  0  0  0  0  0  0  0
  -11.7388   -0.1841  -23.3619 H   0  0  0  0  0  0  0  0  0  0  0  0
  -11.4453    0.5941  -21.8925 H   0  0  0  0  0  0  0  0  0  0  0  0
   -9.4336    0.3676  -23.0633 H   0  0  0  0  0  0  0  0  0  0  0  0
   -9.2628    1.8428  -25.2062 H   0  0  0  0  0  0  0  0  0  0  0  0
  -11.0338    1.8163  -25.2195 H   0  0  0  0  0  0  0  0  0  0  0  0
  -10.2485    0.0868  -26.6879 H   0  0  0  0  0  0  0  0  0  0  0  0
  -10.9349   -0.7090  -25.2549 H   0  0  0  0  0  0  0  0  0  0  0  0
  -12.1614    1.4349  -23.1179 H   0  0  0  0  0  0  0  0  0  0  0  0
  1  2  1  0  0  0  0
  1 11  1  0  0  0  0
  1 12  1  0  0  0  0
  1 18  1  0  0  0  0
  2  3  1  0  0  0  0
  2  5  1  0  0  0  0
  2 13  1  1  0  0  0
  3  4  2  0  0  0  0
  3 10  1  0  0  0  0
  5  6  1  0  0  0  0
  5 14  1  0  0  0  0
  5 15  1  0  0  0  0
  6  7  1  0  0  0  0
  6 16  1  0  0  0  0
  6 17  1  0  0  0  0
  7  8  2  0  0  0  0
  7  9  1  0  0  0  0
M  CHG  1   1   1
M  END
$$$$
