GLU
 OpenBabel04051918553D

 18 17  0  0  1  0  0  0  0  0999 V2000
   53.3205   21.0196   34.2193 N   0  3  0  0  0  0  0  0  0  0  0  0
   54.6570   21.4461   34.8150 C   0  0  2  0  0  0  0  0  0  0  0  0
   54.5479   22.8756   35.4323 C   0  0  0  0  0  0  0  0  0  0  0  0
   53.6326   23.5503   34.8694 O   0  0  0  0  0  0  0  0  0  0  0  0
   55.6880   21.4004   33.6989 C   0  0  0  0  0  0  0  0  0  0  0  0
   57.1130   21.6140   34.2236 C   0  0  0  0  0  0  0  0  0  0  0  0
   58.1692   21.6834   33.1297 C   0  0  0  0  0  0  0  0  0  0  0  0
   59.3573   21.7166   33.5483 O   0  0  0  0  0  0  0  0  0  0  0  0
   57.7406   21.6504   31.9363 O   0  0  0  0  0  0  0  0  0  0  0  0
   55.2037   23.0803   36.4858 O   0  0  0  0  0  0  0  0  0  0  0  0
   53.3445   20.0990   33.7811 H   0  0  0  0  0  0  0  0  0  0  0  0
   52.6171   21.0987   34.9585 H   0  0  0  0  0  0  0  0  0  0  0  0
   54.8700   20.7058   35.5972 H   0  0  0  0  0  0  0  0  0  0  0  0
   55.4504   22.1620   32.9449 H   0  0  0  0  0  0  0  0  0  0  0  0
   55.6441   20.4304   33.1916 H   0  0  0  0  0  0  0  0  0  0  0  0
   57.3664   20.8038   34.9142 H   0  0  0  0  0  0  0  0  0  0  0  0
   57.1681   22.5511   34.7817 H   0  0  0  0  0  0  0  0  0  0  0  0
   53.0789   21.7706   33.5551 H   0  0  0  0  0  0  0  0  0  0  0  0
  1  2  1  0  0  0  0
  1 11  1  0  0  0  0
  1 12  1  0  0  0  0
  1 18  1  0  0  0  0
  2  3  1  0  0  0  0
  2  5  1  0  0  0  0
  2 13  1  1  0  0  0
  3  4  2  0  0  0  0
  3 10  1  0  0  0  0
  5  6  1  0  0  0  0
  5 14  1  0  0  0  0
  5 15  1  0  0  0  0
  6  7  1  0  0  0  0
  6 16  1  0  0  0  0
  6 17  1  0  0  0  0
  7  8  2  0  0  0  0
  7  9  1  0  0  0  0
M  CHG  1   1   1
M  END
$$$$
