GMP
 OpenBabel04051917583D

 33 35  0  0  1  0  0  0  0  0999 V2000
   31.3572   62.4511   13.3899 O   0  0  0  0  0  0  0  0  0  0  0  0
   31.1237   61.0823   13.7070 C   0  0  0  0  0  0  0  0  0  0  0  0
   32.1276   60.1362   13.0468 C   0  0  1  0  0  0  0  0  0  0  0  0
   32.0278   60.2262   11.6126 O   0  0  0  0  0  0  0  0  0  0  0  0
   33.5843   60.4331   13.3877 C   0  0  1  0  0  0  0  0  0  0  0  0
   33.9982   59.9097   14.6430 O   0  0  0  0  0  0  0  0  0  0  0  0
   34.2953   59.7523   12.2292 C   0  0  1  0  0  0  0  0  0  0  0  0
   34.3350   58.3311   12.4552 O   0  0  0  0  0  0  0  0  0  0  0  0
   33.3592   60.0668   11.0595 C   0  0  2  0  0  0  0  0  0  0  0  0
   33.7134   61.2744   10.3379 N   0  3  0  0  0  0  0  0  0  0  0  0
   33.3871   62.5677   10.6574 C   0  0  0  0  0  0  0  0  0  0  0  0
   33.8813   63.4391    9.8028 N   0  0  0  0  0  0  0  0  0  0  0  0
   34.5228   62.6683    8.8681 C   0  0  0  0  0  0  0  0  0  0  0  0
   35.2218   63.0372    7.6632 C   0  0  0  0  0  0  0  0  0  0  0  0
   35.3924   64.1847    7.2511 O   0  0  0  0  0  0  0  0  0  0  0  0
   35.7141   61.9360    6.9778 N   0  3  0  0  0  0  0  0  0  0  0  0
   35.5856   60.6295    7.4097 C   0  0  0  0  0  0  0  0  0  0  0  0
   36.1415   59.6750    6.6362 N   0  0  0  0  0  0  0  0  0  0  0  0
   34.9654   60.2822    8.5085 N   0  0  0  0  0  0  0  0  0  0  0  0
   34.4457   61.3309    9.1862 C   0  0  0  0  0  0  0  0  0  0  0  0
   32.2218   62.7274   13.7320 H   0  0  0  0  0  0  0  0  0  0  0  0
   30.1132   60.8487   13.3577 H   0  0  0  0  0  0  0  0  0  0  0  0
   31.1493   60.9780   14.7952 H   0  0  0  0  0  0  0  0  0  0  0  0
   31.8741   59.1096   13.3420 H   0  0  0  0  0  0  0  0  0  0  0  0
   33.8028   61.5058   13.3680 H   0  0  0  0  0  0  0  0  0  0  0  0
   33.4023   60.2572   15.3312 H   0  0  0  0  0  0  0  0  0  0  0  0
   35.3260   60.0920   12.0945 H   0  0  0  0  0  0  0  0  0  0  0  0
   34.7236   58.2099   13.3432 H   0  0  0  0  0  0  0  0  0  0  0  0
   33.3231   59.2395   10.3424 H   0  0  0  0  0  0  0  0  0  0  0  0
   32.7875   62.8319   11.5152 H   0  0  0  0  0  0  0  0  0  0  0  0
   36.2040   62.1490    6.1287 H   0  0  0  0  0  0  0  0  0  0  0  0
   36.0249   58.7145    6.9318 H   0  0  0  0  0  0  0  0  0  0  0  0
   36.6079   59.8536    5.7604 H   0  0  0  0  0  0  0  0  0  0  0  0
  1  2  1  0  0  0  0
  1 21  1  0  0  0  0
  2  3  1  0  0  0  0
  2 22  1  0  0  0  0
  2 23  1  0  0  0  0
  3  4  1  0  0  0  0
  3  5  1  0  0  0  0
  3 24  1  1  0  0  0
  4  9  1  0  0  0  0
  5  6  1  0  0  0  0
  5  7  1  0  0  0  0
  5 25  1  6  0  0  0
  6 26  1  0  0  0  0
  7  8  1  0  0  0  0
  7  9  1  0  0  0  0
  7 27  1  6  0  0  0
  8 28  1  0  0  0  0
  9 10  1  0  0  0  0
  9 29  1  6  0  0  0
 10 11  2  0  0  0  0
 10 20  1  0  0  0  0
 11 12  1  0  0  0  0
 11 30  1  0  0  0  0
 12 13  1  0  0  0  0
 13 14  1  0  0  0  0
 13 20  2  0  0  0  0
 14 15  2  0  0  0  0
 14 16  1  0  0  0  0
 16 17  1  0  0  0  0
 16 31  1  0  0  0  0
 17 18  1  0  0  0  0
 17 19  2  0  0  0  0
 18 32  1  0  0  0  0
 18 33  1  0  0  0  0
 19 20  1  0  0  0  0
M  CHG  2  10   1  16   1
M  END
$$$$
