GNF
 OpenBabel04051917483D

 64 67  0  0  1  0  0  0  0  0999 V2000
   21.0636   37.5253   12.1270 O   0  0  0  0  0  0  0  0  0  0  0  0
   22.0741   37.0775   11.5836 C   0  0  0  0  0  0  0  0  0  0  0  0
   22.6438   35.6838   11.9399 C   0  0  1  0  0  0  0  0  0  0  0  0
   23.0268   35.6838   13.3295 N   0  0  0  0  0  0  0  0  0  0  0  0
   24.1569   36.2878   13.7257 C   0  0  0  0  0  0  0  0  0  0  0  0
   24.3529   36.3649   15.0643 O   0  0  0  0  0  0  0  0  0  0  0  0
   25.5803   36.9324   15.1744 C   0  0  0  0  0  0  0  0  0  0  0  0
   26.2883   37.2288   16.3374 C   0  0  0  0  0  0  0  0  0  0  0  0
   27.5547   37.7880   16.1516 C   0  0  0  0  0  0  0  0  0  0  0  0
   28.0691   38.0411   14.8719 C   0  0  0  0  0  0  0  0  0  0  0  0
   27.3199   37.7425   13.7226 C   0  0  0  0  0  0  0  0  0  0  0  0
   26.0532   37.1736   13.8940 C   0  0  0  0  0  0  0  0  0  0  0  0
   25.1226   36.7644   12.9717 N   0  0  0  0  0  0  0  0  0  0  0  0
   21.5642   34.6207   11.6658 C   0  0  0  0  0  0  0  0  0  0  0  0
   21.5109   33.4503   12.6680 C   0  0  0  0  0  0  0  0  0  0  0  0
   22.3769   32.2813   12.1940 C   0  0  0  0  0  0  0  0  0  0  0  0
   22.2436   31.1092   13.1592 C   0  0  0  0  0  0  0  0  0  0  0  0
   20.7878   30.6846   13.3721 C   0  0  0  0  0  0  0  0  0  0  0  0
   19.7917   31.5821   12.6509 C   0  0  0  0  0  0  0  0  0  0  0  0
   20.0560   33.0457   12.9516 C   0  0  0  0  0  0  0  0  0  0  0  0
   22.8085   37.7892   10.6626 N   0  0  0  0  0  0  0  0  0  0  0  0
   22.4575   39.1544   10.3217 C   0  0  0  0  0  0  0  0  0  0  0  0
   23.1762   39.6697    9.0565 C   0  0  0  0  0  0  0  0  0  0  0  0
   22.7732   38.9215    7.8701 N   0  0  0  0  0  0  0  0  0  0  0  0
   21.4361   38.8436    7.5216 C   0  0  0  0  0  0  0  0  0  0  0  0
   20.9613   37.7317    6.8188 C   0  0  0  0  0  0  0  0  0  0  0  0
   19.5907   37.5642    6.6057 C   0  0  0  0  0  0  0  0  0  0  0  0
   20.5062   39.7780    8.0026 C   0  0  0  0  0  0  0  0  0  0  0  0
   19.1475   39.6004    7.8342 C   0  0  0  0  0  0  0  0  0  0  0  0
   18.7001   38.5076    7.1110 C   0  0  0  0  0  0  0  0  0  0  0  0
   17.3608   38.3581    6.8859 O   0  0  0  0  0  0  0  0  0  0  0  0
   16.9341   39.4023    6.0094 C   0  0  0  0  0  0  0  0  0  0  0  0
   23.5158   35.4548   11.3067 H   0  0  0  0  0  0  0  0  0  0  0  0
   22.2870   35.5903   14.0204 H   0  0  0  0  0  0  0  0  0  0  0  0
   25.8737   37.0220   17.3194 H   0  0  0  0  0  0  0  0  0  0  0  0
   28.1673   38.0358   17.0202 H   0  0  0  0  0  0  0  0  0  0  0  0
   29.0591   38.4728   14.7634 H   0  0  0  0  0  0  0  0  0  0  0  0
   27.7143   37.9376   12.7334 H   0  0  0  0  0  0  0  0  0  0  0  0
   21.7169   34.2209   10.6512 H   0  0  0  0  0  0  0  0  0  0  0  0
   20.5857   35.1114   11.6157 H   0  0  0  0  0  0  0  0  0  0  0  0
   21.9108   33.7359   13.6443 H   0  0  0  0  0  0  0  0  0  0  0  0
   23.4261   32.5888   12.1207 H   0  0  0  0  0  0  0  0  0  0  0  0
   22.0650   31.9673   11.1908 H   0  0  0  0  0  0  0  0  0  0  0  0
   22.6804   31.3869   14.1276 H   0  0  0  0  0  0  0  0  0  0  0  0
   22.8252   30.2610   12.7847 H   0  0  0  0  0  0  0  0  0  0  0  0
   20.5683   30.6875   14.4473 H   0  0  0  0  0  0  0  0  0  0  0  0
   20.6545   29.6533   13.0282 H   0  0  0  0  0  0  0  0  0  0  0  0
   18.7694   31.3254   12.9394 H   0  0  0  0  0  0  0  0  0  0  0  0
   19.8685   31.4226   11.5684 H   0  0  0  0  0  0  0  0  0  0  0  0
   19.3477   33.6585   12.3856 H   0  0  0  0  0  0  0  0  0  0  0  0
   19.8414   33.2454   14.0108 H   0  0  0  0  0  0  0  0  0  0  0  0
   23.6513   37.3919   10.2718 H   0  0  0  0  0  0  0  0  0  0  0  0
   22.6900   39.8001   11.1743 H   0  0  0  0  0  0  0  0  0  0  0  0
   21.3689   39.1761   10.2210 H   0  0  0  0  0  0  0  0  0  0  0  0
   24.2590   39.5784    9.1806 H   0  0  0  0  0  0  0  0  0  0  0  0
   22.9672   40.7373    8.9102 H   0  0  0  0  0  0  0  0  0  0  0  0
   23.4690   38.4751    7.2879 H   0  0  0  0  0  0  0  0  0  0  0  0
   21.6528   36.9719    6.4636 H   0  0  0  0  0  0  0  0  0  0  0  0
   19.2226   36.7102    6.0459 H   0  0  0  0  0  0  0  0  0  0  0  0
   20.8214   40.6477    8.5697 H   0  0  0  0  0  0  0  0  0  0  0  0
   18.4551   40.3179    8.2608 H   0  0  0  0  0  0  0  0  0  0  0  0
   15.8542   39.3156    5.8839 H   0  0  0  0  0  0  0  0  0  0  0  0
   17.4203   39.2837    5.0356 H   0  0  0  0  0  0  0  0  0  0  0  0
   17.1421   40.4039    6.4069 H   0  0  0  0  0  0  0  0  0  0  0  0
  1  2  2  0  0  0  0
  2  3  1  0  0  0  0
  2 21  1  0  0  0  0
  3  4  1  0  0  0  0
  3 14  1  0  0  0  0
  3 33  1  6  0  0  0
  4  5  1  0  0  0  0
  4 34  1  0  0  0  0
  5  6  1  0  0  0  0
  5 13  2  0  0  0  0
  6  7  1  0  0  0  0
  7  8  2  0  0  0  0
  7 12  1  0  0  0  0
  8  9  1  0  0  0  0
  8 35  1  0  0  0  0
  9 10  2  0  0  0  0
  9 36  1  0  0  0  0
 10 11  1  0  0  0  0
 10 37  1  0  0  0  0
 11 12  2  0  0  0  0
 11 38  1  0  0  0  0
 12 13  1  0  0  0  0
 14 15  1  0  0  0  0
 14 39  1  0  0  0  0
 14 40  1  0  0  0  0
 15 16  1  0  0  0  0
 15 20  1  0  0  0  0
 15 41  1  0  0  0  0
 16 17  1  0  0  0  0
 16 42  1  0  0  0  0
 16 43  1  0  0  0  0
 17 18  1  0  0  0  0
 17 44  1  0  0  0  0
 17 45  1  0  0  0  0
 18 19  1  0  0  0  0
 18 46  1  0  0  0  0
 18 47  1  0  0  0  0
 19 20  1  0  0  0  0
 19 48  1  0  0  0  0
 19 49  1  0  0  0  0
 20 50  1  0  0  0  0
 20 51  1  0  0  0  0
 21 22  1  0  0  0  0
 21 52  1  0  0  0  0
 22 23  1  0  0  0  0
 22 53  1  0  0  0  0
 22 54  1  0  0  0  0
 23 24  1  0  0  0  0
 23 55  1  0  0  0  0
 23 56  1  0  0  0  0
 24 25  1  0  0  0  0
 24 57  1  0  0  0  0
 25 26  2  0  0  0  0
 25 28  1  0  0  0  0
 26 27  1  0  0  0  0
 26 58  1  0  0  0  0
 27 30  2  0  0  0  0
 27 59  1  0  0  0  0
 28 29  2  0  0  0  0
 28 60  1  0  0  0  0
 29 30  1  0  0  0  0
 29 61  1  0  0  0  0
 30 31  1  0  0  0  0
 31 32  1  0  0  0  0
 32 62  1  0  0  0  0
 32 63  1  0  0  0  0
 32 64  1  0  0  0  0
M  END
$$$$
