GNG
 OpenBabel04051917163D

 32 34  0  0  1  0  0  0  0  0999 V2000
    9.3992    3.5286    0.1721 O   0  0  0  0  0  0  0  0  0  0  0  0
    9.7630    2.1531    0.2804 C   0  0  0  0  0  0  0  0  0  0  0  0
   10.9111    2.1503    1.2629 C   0  0  1  0  0  0  0  0  0  0  0  0
   10.3920    1.8786    2.5786 O   0  0  0  0  0  0  0  0  0  0  0  0
   11.4572    1.2045    3.2766 C   0  0  1  0  0  0  0  0  0  0  0  0
   11.0205    0.6116    4.5212 N   0  3  0  0  0  0  0  0  0  0  0  0
    9.8890    0.9258    5.2379 C   0  0  0  0  0  0  0  0  0  0  0  0
    9.8177    0.1839    6.3277 N   0  0  0  0  0  0  0  0  0  0  0  0
   10.9341   -0.5935    6.3256 C   0  0  0  0  0  0  0  0  0  0  0  0
   11.7132   -0.3607    5.2334 C   0  0  0  0  0  0  0  0  0  0  0  0
   12.8868   -1.0162    4.9985 N   0  0  0  0  0  0  0  0  0  0  0  0
   13.2847   -1.9153    5.8796 C   0  0  0  0  0  0  0  0  0  0  0  0
   12.5645   -2.2121    6.9882 N   0  3  0  0  0  0  0  0  0  0  0  0
   11.3955   -1.5768    7.2341 C   0  0  0  0  0  0  0  0  0  0  0  0
   10.7531   -1.8622    8.2526 O   0  0  0  0  0  0  0  0  0  0  0  0
   14.4363   -2.6366    5.7692 N   0  0  0  0  0  0  0  0  0  0  0  0
   11.9825    0.2228    2.2523 C   0  0  0  0  0  0  0  0  0  0  0  0
   11.9509    1.0786    1.0061 C   0  0  2  0  0  0  0  0  0  0  0  0
   13.2298    1.7111    0.9519 O   0  0  0  0  0  0  0  0  0  0  0  0
    8.6619    3.6150   -0.4451 H   0  0  0  0  0  0  0  0  0  0  0  0
   10.0785    1.7670   -0.6964 H   0  0  0  0  0  0  0  0  0  0  0  0
    8.9185    1.5624    0.6562 H   0  0  0  0  0  0  0  0  0  0  0  0
   11.3884    3.1440    1.2531 H   0  0  0  0  0  0  0  0  0  0  0  0
   12.2298    1.9414    3.5153 H   0  0  0  0  0  0  0  0  0  0  0  0
    9.1624    1.6812    4.9322 H   0  0  0  0  0  0  0  0  0  0  0  0
   12.8660   -2.9044    7.6576 H   0  0  0  0  0  0  0  0  0  0  0  0
   15.0401   -2.4755    4.9650 H   0  0  0  0  0  0  0  0  0  0  0  0
   14.7076   -3.3320    6.4662 H   0  0  0  0  0  0  0  0  0  0  0  0
   11.3301   -0.6550    2.1578 H   0  0  0  0  0  0  0  0  0  0  0  0
   12.9998   -0.1040    2.5034 H   0  0  0  0  0  0  0  0  0  0  0  0
   11.7480    0.5025    0.0974 H   0  0  0  0  0  0  0  0  0  0  0  0
   13.2601    2.2861    0.1709 H   0  0  0  0  0  0  0  0  0  0  0  0
  1  2  1  0  0  0  0
  1 20  1  0  0  0  0
  2  3  1  0  0  0  0
  2 21  1  0  0  0  0
  2 22  1  0  0  0  0
  3  4  1  0  0  0  0
  3 18  1  0  0  0  0
  3 23  1  6  0  0  0
  4  5  1  0  0  0  0
  5  6  1  0  0  0  0
  5 17  1  0  0  0  0
  5 24  1  1  0  0  0
  6  7  2  0  0  0  0
  6 10  1  0  0  0  0
  7  8  1  0  0  0  0
  7 25  1  0  0  0  0
  8  9  1  0  0  0  0
  9 10  2  0  0  0  0
  9 14  1  0  0  0  0
 10 11  1  0  0  0  0
 11 12  2  0  0  0  0
 12 13  1  0  0  0  0
 12 16  1  0  0  0  0
 13 14  1  0  0  0  0
 13 26  1  0  0  0  0
 14 15  2  0  0  0  0
 16 27  1  0  0  0  0
 16 28  1  0  0  0  0
 17 18  1  0  0  0  0
 17 29  1  0  0  0  0
 17 30  1  0  0  0  0
 18 19  1  0  0  0  0
 18 31  1  6  0  0  0
 19 32  1  0  0  0  0
M  CHG  2   6   1  13   1
M  END
$$$$
