GNQ
 OpenBabel04051918103D

 70 72  0  0  1  0  0  0  0  0999 V2000
   34.1184   27.9141   19.3549 O   0  0  0  0  0  0  0  0  0  0  0  0
   34.0019   28.5002   18.0649 S   0  0  0  0  0  0  0  0  0  0  0  0
   34.0527   29.9485   17.8780 O   0  0  0  0  0  0  0  0  0  0  0  0
   32.5667   27.8507   17.2704 C   0  0  0  0  0  0  0  0  0  0  0  0
   31.3232   28.3331   17.9090 C   0  0  0  0  0  0  0  0  0  0  0  0
   30.7425   29.5271   17.4553 C   0  0  0  0  0  0  0  0  0  0  0  0
   29.5463   29.9671   17.9849 C   0  0  0  0  0  0  0  0  0  0  0  0
   28.9221   29.2065   18.9691 C   0  0  0  0  0  0  0  0  0  0  0  0
   29.5011   28.0175   19.4239 C   0  0  0  0  0  0  0  0  0  0  0  0
   30.7030   27.5737   18.9000 C   0  0  0  0  0  0  0  0  0  0  0  0
   35.2680   27.7801   17.0676 C   0  0  0  0  0  0  0  0  0  0  0  0
   35.5476   28.5801   15.8200 C   0  0  2  0  0  0  0  0  0  0  0  0
   34.5286   28.4122   14.7873 N   0  0  0  0  0  0  0  0  0  0  0  0
   34.6284   29.1781   13.6614 C   0  0  0  0  0  0  0  0  0  0  0  0
   35.5021   29.9916   13.5560 O   0  0  0  0  0  0  0  0  0  0  0  0
   33.7104   28.9825   12.6650 N   0  0  0  0  0  0  0  0  0  0  0  0
   33.8186   29.8663   11.4880 C   0  0  0  0  0  0  0  0  0  0  0  0
   33.5301   29.0931   10.2137 C   0  0  0  0  0  0  0  0  0  0  0  0
   32.2280   28.4962   10.3231 O   0  0  0  0  0  0  0  0  0  0  0  0
   32.2755   27.4832   11.3398 C   0  0  0  0  0  0  0  0  0  0  0  0
   32.5713   28.0797   12.7103 C   0  0  0  0  0  0  0  0  0  0  0  0
   36.8245   28.0258   15.1969 C   0  0  0  0  0  0  0  0  0  0  0  0
   36.8384   26.9477   14.6059 O   0  0  0  0  0  0  0  0  0  0  0  0
   37.9454   28.7819   15.3627 N   0  0  0  0  0  0  0  0  0  0  0  0
   39.1471   28.3791   14.6506 C   0  0  1  0  0  0  0  0  0  0  0  0
   39.1929   29.1312   13.3237 C   0  0  0  0  0  0  0  0  0  0  0  0
   40.3696   28.6498   15.5174 C   0  0  0  0  0  0  0  0  0  0  0  0
   41.2185   29.5644   14.7921 N   0  0  0  0  0  0  0  0  0  0  0  0
   42.5371   29.6778   15.0721 C   0  0  0  0  0  0  0  0  0  0  0  0
   42.9567   29.4333   16.3504 C   0  0  0  0  0  0  0  0  0  0  0  0
   44.3163   29.5155   16.6589 C   0  0  0  0  0  0  0  0  0  0  0  0
   43.4919   29.9355   14.0708 C   0  0  0  0  0  0  0  0  0  0  0  0
   44.8692   29.9962   14.4006 C   0  0  0  0  0  0  0  0  0  0  0  0
   45.2861   29.7389   15.7046 C   0  0  0  0  0  0  0  0  0  0  0  0
   46.5661   29.8815   16.1642 O   0  0  0  0  0  0  0  0  0  0  0  0
   47.6206   28.9737   15.7910 C   0  0  0  0  0  0  0  0  0  0  0  0
   47.4683   27.7361   16.3310 F   0  0  0  0  0  0  0  0  0  0  0  0
   47.7768   28.8571   14.4541 F   0  0  0  0  0  0  0  0  0  0  0  0
   48.7952   29.4632   16.2918 F   0  0  0  0  0  0  0  0  0  0  0  0
   32.6350   26.7606   17.3369 H   0  0  0  0  0  0  0  0  0  0  0  0
   32.5767   28.1729   16.2321 H   0  0  0  0  0  0  0  0  0  0  0  0
   31.2370   30.1024   16.6741 H   0  0  0  0  0  0  0  0  0  0  0  0
   29.0958   30.8970   17.6401 H   0  0  0  0  0  0  0  0  0  0  0  0
   27.9796   29.5414   19.3859 H   0  0  0  0  0  0  0  0  0  0  0  0
   28.9969   27.4433   20.1989 H   0  0  0  0  0  0  0  0  0  0  0  0
   31.1482   26.6412   19.2467 H   0  0  0  0  0  0  0  0  0  0  0  0
   34.9429   26.7559   16.8290 H   0  0  0  0  0  0  0  0  0  0  0  0
   36.1390   27.7320   17.7280 H   0  0  0  0  0  0  0  0  0  0  0  0
   35.6671   29.6414   16.0552 H   0  0  0  0  0  0  0  0  0  0  0  0
   33.8361   27.7005   14.8651 H   0  0  0  0  0  0  0  0  0  0  0  0
   34.8197   30.3067   11.4164 H   0  0  0  0  0  0  0  0  0  0  0  0
   33.0884   30.6768   11.5970 H   0  0  0  0  0  0  0  0  0  0  0  0
   34.2763   28.3018   10.0664 H   0  0  0  0  0  0  0  0  0  0  0  0
   33.5538   29.7562    9.3410 H   0  0  0  0  0  0  0  0  0  0  0  0
   33.0547   26.7613   11.0736 H   0  0  0  0  0  0  0  0  0  0  0  0
   31.3146   26.9678   11.3622 H   0  0  0  0  0  0  0  0  0  0  0  0
   31.7078   28.6469   13.0687 H   0  0  0  0  0  0  0  0  0  0  0  0
   32.7707   27.2678   13.4097 H   0  0  0  0  0  0  0  0  0  0  0  0
   37.9201   29.6858   15.8297 H   0  0  0  0  0  0  0  0  0  0  0  0
   39.1179   27.3022   14.4454 H   0  0  0  0  0  0  0  0  0  0  0  0
   40.1047   28.8690   12.7635 H   0  0  0  0  0  0  0  0  0  0  0  0
   39.1870   30.2196   13.5143 H   0  0  0  0  0  0  0  0  0  0  0  0
   38.3274   28.9155   12.7152 H   0  0  0  0  0  0  0  0  0  0  0  0
   40.8996   27.7062   15.7305 H   0  0  0  0  0  0  0  0  0  0  0  0
   40.0771   29.0763   16.4899 H   0  0  0  0  0  0  0  0  0  0  0  0
   40.8670   30.1742   14.0824 H   0  0  0  0  0  0  0  0  0  0  0  0
   42.2220   29.2212   17.1283 H   0  0  0  0  0  0  0  0  0  0  0  0
   44.5618   29.3694   17.7057 H   0  0  0  0  0  0  0  0  0  0  0  0
   43.1764   30.0917   13.0401 H   0  0  0  0  0  0  0  0  0  0  0  0
   45.5805   30.2528   13.6276 H   0  0  0  0  0  0  0  0  0  0  0  0
  1  2  2  0  0  0  0
  2  3  2  0  0  0  0
  2  4  1  0  0  0  0
  2 11  1  0  0  0  0
  4  5  1  0  0  0  0
  4 40  1  0  0  0  0
  4 41  1  0  0  0  0
  5  6  2  0  0  0  0
  5 10  1  0  0  0  0
  6  7  1  0  0  0  0
  6 42  1  0  0  0  0
  7  8  2  0  0  0  0
  7 43  1  0  0  0  0
  8  9  1  0  0  0  0
  8 44  1  0  0  0  0
  9 10  2  0  0  0  0
  9 45  1  0  0  0  0
 10 46  1  0  0  0  0
 11 12  1  0  0  0  0
 11 47  1  0  0  0  0
 11 48  1  0  0  0  0
 12 13  1  0  0  0  0
 12 22  1  0  0  0  0
 12 49  1  1  0  0  0
 13 14  1  0  0  0  0
 13 50  1  0  0  0  0
 14 15  2  0  0  0  0
 14 16  1  0  0  0  0
 16 17  1  0  0  0  0
 16 21  1  0  0  0  0
 17 18  1  0  0  0  0
 17 51  1  0  0  0  0
 17 52  1  0  0  0  0
 18 19  1  0  0  0  0
 18 53  1  0  0  0  0
 18 54  1  0  0  0  0
 19 20  1  0  0  0  0
 20 21  1  0  0  0  0
 20 55  1  0  0  0  0
 20 56  1  0  0  0  0
 21 57  1  0  0  0  0
 21 58  1  0  0  0  0
 22 23  2  0  0  0  0
 22 24  1  0  0  0  0
 24 25  1  0  0  0  0
 24 59  1  0  0  0  0
 25 26  1  0  0  0  0
 25 27  1  0  0  0  0
 25 60  1  6  0  0  0
 26 61  1  0  0  0  0
 26 62  1  0  0  0  0
 26 63  1  0  0  0  0
 27 28  1  0  0  0  0
 27 64  1  0  0  0  0
 27 65  1  0  0  0  0
 28 29  1  0  0  0  0
 28 66  1  0  0  0  0
 29 30  2  0  0  0  0
 29 32  1  0  0  0  0
 30 31  1  0  0  0  0
 30 67  1  0  0  0  0
 31 34  2  0  0  0  0
 31 68  1  0  0  0  0
 32 33  2  0  0  0  0
 32 69  1  0  0  0  0
 33 34  1  0  0  0  0
 33 70  1  0  0  0  0
 34 35  1  0  0  0  0
 35 36  1  0  0  0  0
 36 37  1  0  0  0  0
 36 38  1  0  0  0  0
 36 39  1  0  0  0  0
M  END
$$$$
