GSH
 OpenBabel04051917313D

 36 35  0  0  1  0  0  0  0  0999 V2000
    3.1404   13.7564   43.2356 O   0  0  0  0  0  0  0  0  0  0  0  0
    2.4519   12.7060   43.2118 C   0  0  0  0  0  0  0  0  0  0  0  0
    1.2796   12.4874   42.7992 O   0  0  0  0  0  0  0  0  0  0  0  0
    2.9762   11.5591   44.1326 C   0  0  2  0  0  0  0  0  0  0  0  0
    2.3316   11.7043   45.5012 N   0  3  0  0  0  0  0  0  0  0  0  0
    4.4733   11.4146   44.3679 C   0  0  0  0  0  0  0  0  0  0  0  0
    5.2703   11.5136   43.0743 C   0  0  0  0  0  0  0  0  0  0  0  0
    6.2087   10.3480   42.8799 C   0  0  0  0  0  0  0  0  0  0  0  0
    5.9973    9.2316   43.3221 O   0  0  0  0  0  0  0  0  0  0  0  0
    7.2421   10.6852   42.0475 N   0  0  0  0  0  0  0  0  0  0  0  0
    8.1424    9.6970   41.4714 C   0  0  1  0  0  0  0  0  0  0  0  0
    7.8674    9.5056   39.9739 C   0  0  0  0  0  0  0  0  0  0  0  0
    6.1685    8.9022   39.6559 S   0  0  0  0  0  0  0  0  0  0  0  0
    9.5598   10.2590   41.5583 C   0  0  0  0  0  0  0  0  0  0  0  0
    9.7855   11.4574   41.4054 O   0  0  0  0  0  0  0  0  0  0  0  0
   10.5069    9.2588   41.5829 N   0  0  0  0  0  0  0  0  0  0  0  0
   11.9145    9.5900   41.3870 C   0  0  0  0  0  0  0  0  0  0  0  0
   12.6929   10.1485   42.5982 C   0  0  0  0  0  0  0  0  0  0  0  0
   13.8364   10.6109   42.3145 O   0  0  0  0  0  0  0  0  0  0  0  0
   12.1317   10.0063   43.7241 O   0  0  0  0  0  0  0  0  0  0  0  0
    2.5936   10.6150   43.7394 H   0  0  0  0  0  0  0  0  0  0  0  0
    2.6123   10.9802   46.1620 H   0  0  0  0  0  0  0  0  0  0  0  0
    2.5631   12.6463   45.8446 H   0  0  0  0  0  0  0  0  0  0  0  0
    4.6420   10.4530   44.8696 H   0  0  0  0  0  0  0  0  0  0  0  0
    4.8441   12.1764   45.0649 H   0  0  0  0  0  0  0  0  0  0  0  0
    5.8329   12.4535   43.0647 H   0  0  0  0  0  0  0  0  0  0  0  0
    4.6198   11.5097   42.1913 H   0  0  0  0  0  0  0  0  0  0  0  0
    7.4561   11.6529   41.8539 H   0  0  0  0  0  0  0  0  0  0  0  0
    8.0712    8.7483   42.0121 H   0  0  0  0  0  0  0  0  0  0  0  0
    8.5752    8.7941   39.5358 H   0  0  0  0  0  0  0  0  0  0  0  0
    8.0016   10.4532   39.4336 H   0  0  0  0  0  0  0  0  0  0  0  0
    6.2276    8.9309   38.3207 H   0  0  0  0  0  0  0  0  0  0  0  0
   10.3430    8.5269   42.2658 H   0  0  0  0  0  0  0  0  0  0  0  0
   11.9711   10.3016   40.5559 H   0  0  0  0  0  0  0  0  0  0  0  0
   12.3919    8.6557   41.0764 H   0  0  0  0  0  0  0  0  0  0  0  0
    1.3154   11.6973   45.3274 H   0  0  0  0  0  0  0  0  0  0  0  0
  1  2  2  0  0  0  0
  2  3  1  0  0  0  0
  2  4  1  0  0  0  0
  4  5  1  0  0  0  0
  4  6  1  0  0  0  0
  4 21  1  6  0  0  0
  5 22  1  0  0  0  0
  5 23  1  0  0  0  0
  5 36  1  0  0  0  0
  6  7  1  0  0  0  0
  6 24  1  0  0  0  0
  6 25  1  0  0  0  0
  7  8  1  0  0  0  0
  7 26  1  0  0  0  0
  7 27  1  0  0  0  0
  8  9  2  0  0  0  0
  8 10  1  0  0  0  0
 10 11  1  0  0  0  0
 10 28  1  0  0  0  0
 11 12  1  0  0  0  0
 11 14  1  0  0  0  0
 11 29  1  1  0  0  0
 12 13  1  0  0  0  0
 12 30  1  0  0  0  0
 12 31  1  0  0  0  0
 13 32  1  0  0  0  0
 14 15  2  0  0  0  0
 14 16  1  0  0  0  0
 16 17  1  0  0  0  0
 16 33  1  0  0  0  0
 17 18  1  0  0  0  0
 17 34  1  0  0  0  0
 17 35  1  0  0  0  0
 18 19  2  0  0  0  0
 18 20  1  0  0  0  0
M  CHG  1   5   1
M  END
$$$$
