GSQ
 OpenBabel04051918173D

 53 56  0  0  1  0  0  0  0  0999 V2000
   13.9719    7.5330   26.2139 Cl  0  0  0  0  0  0  0  0  0  0  0  0
   12.2571    7.6985   26.1571 C   0  0  2  0  0  0  0  0  0  0  0  0
   11.4819    7.1905   27.1962 C   0  0  0  0  0  0  0  0  0  0  0  0
   10.0896    7.3031   27.1716 C   0  0  0  0  0  0  0  0  0  0  0  0
    9.5062    7.9331   26.0661 C   0  0  1  0  0  0  0  0  0  0  0  0
    8.2013    8.2053   25.7769 N   0  3  0  0  0  0  0  0  0  0  0  0
   10.2687    8.4480   25.0111 C   0  0  2  0  0  0  0  0  0  0  0  0
   11.6689    8.3357   25.0601 C   0  0  0  0  0  0  0  0  0  0  0  0
    9.3556    9.0167   24.0798 C   0  0  0  0  0  0  0  0  0  0  0  0
    8.0756    8.8446   24.5632 C   0  0  2  0  0  0  0  0  0  0  0  0
    6.4757    9.3017   23.9706 S   0  0  0  0  0  0  0  0  0  0  0  0
    5.6148    9.0726   25.1118 O   0  0  0  0  0  0  0  0  0  0  0  0
    6.6333   10.6045   23.3699 O   0  0  0  0  0  0  0  0  0  0  0  0
    6.0145    8.2673   22.7635 N   0  0  0  0  0  0  0  0  0  0  0  0
    6.1830    6.8318   22.8618 C   0  0  2  0  0  0  0  0  0  0  0  0
    7.0849    6.2596   21.7804 C   0  0  0  0  0  0  0  0  0  0  0  0
    8.1753    6.6967   21.4477 O   0  0  0  0  0  0  0  0  0  0  0  0
    4.8610    6.0873   22.6979 C   0  0  0  0  0  0  0  0  0  0  0  0
    5.0835    5.0589   21.5963 C   0  0  0  0  0  0  0  0  0  0  0  0
    6.5029    5.0854   21.3311 N   0  0  0  0  0  0  0  0  0  0  0  0
    7.2505    4.0228   20.6297 C   0  0  1  0  0  0  0  0  0  0  0  0
    7.0038    2.6804   21.3176 C   0  0  0  0  0  0  0  0  0  0  0  0
    6.9779    3.9173   19.1153 C   0  0  0  0  0  0  0  0  0  0  0  0
    5.8525    4.1397   18.6606 O   0  0  0  0  0  0  0  0  0  0  0  0
    8.0308    3.5427   18.2865 N   0  0  0  0  0  0  0  0  0  0  0  0
    9.2570    2.8254   18.6749 C   0  0  0  0  0  0  0  0  0  0  0  0
    9.5967    1.7208   17.6540 C   0  0  0  0  0  0  0  0  0  0  0  0
    9.6168    2.2217   16.3125 O   0  0  0  0  0  0  0  0  0  0  0  0
    8.3291    2.7736   15.9708 C   0  0  0  0  0  0  0  0  0  0  0  0
    7.9944    3.9496   16.8815 C   0  0  0  0  0  0  0  0  0  0  0  0
   11.9599    6.7018   28.0439 H   0  0  0  0  0  0  0  0  0  0  0  0
    9.4833    6.9159   27.9875 H   0  0  0  0  0  0  0  0  0  0  0  0
    7.4078    7.9941   26.3764 H   0  0  0  0  0  0  0  0  0  0  0  0
   12.2802    8.7408   24.2601 H   0  0  0  0  0  0  0  0  0  0  0  0
    9.6044    9.5187   23.1522 H   0  0  0  0  0  0  0  0  0  0  0  0
    5.5437    8.6894   21.9668 H   0  0  0  0  0  0  0  0  0  0  0  0
    6.6381    6.5411   23.8159 H   0  0  0  0  0  0  0  0  0  0  0  0
    4.0162    6.7451   22.4657 H   0  0  0  0  0  0  0  0  0  0  0  0
    4.6077    5.5765   23.6359 H   0  0  0  0  0  0  0  0  0  0  0  0
    4.5378    5.3400   20.6887 H   0  0  0  0  0  0  0  0  0  0  0  0
    4.7540    4.0690   21.9182 H   0  0  0  0  0  0  0  0  0  0  0  0
    8.3113    4.2813   20.7427 H   0  0  0  0  0  0  0  0  0  0  0  0
    7.5515    1.8614   20.8554 H   0  0  0  0  0  0  0  0  0  0  0  0
    5.9457    2.4015   21.2766 H   0  0  0  0  0  0  0  0  0  0  0  0
    7.2958    2.7405   22.3722 H   0  0  0  0  0  0  0  0  0  0  0  0
    9.1567    2.3694   19.6608 H   0  0  0  0  0  0  0  0  0  0  0  0
   10.0704    3.5557   18.7199 H   0  0  0  0  0  0  0  0  0  0  0  0
    8.8744    0.8980   17.7088 H   0  0  0  0  0  0  0  0  0  0  0  0
   10.5864    1.3041   17.8649 H   0  0  0  0  0  0  0  0  0  0  0  0
    7.5706    1.9941   16.0474 H   0  0  0  0  0  0  0  0  0  0  0  0
    8.3761    3.1042   14.9309 H   0  0  0  0  0  0  0  0  0  0  0  0
    8.7532    4.7346   16.7697 H   0  0  0  0  0  0  0  0  0  0  0  0
    7.0284    4.3815   16.6124 H   0  0  0  0  0  0  0  0  0  0  0  0
  2  1  1  6  0  0  0
  2  3  1  0  0  0  0
  2  8  1  0  0  0  0
  3  4  1  0  0  0  0
  3 31  1  0  0  0  0
  4 32  1  0  0  0  0
  5  4  1  1  0  0  0
  5  6  1  0  0  0  0
  5  7  1  0  0  0  0
  6 10  1  0  0  0  0
  6 33  1  0  0  0  0
  7  8  1  1  0  0  0
  7  9  1  0  0  0  0
  8 34  1  0  0  0  0
  9 10  1  0  0  0  0
  9 35  1  0  0  0  0
 10 11  1  1  0  0  0
 11 12  2  0  0  0  0
 11 13  2  0  0  0  0
 11 14  1  0  0  0  0
 14 15  1  0  0  0  0
 14 36  1  0  0  0  0
 15 16  1  0  0  0  0
 15 18  1  0  0  0  0
 15 37  1  1  0  0  0
 16 17  2  0  0  0  0
 16 20  1  0  0  0  0
 18 19  1  0  0  0  0
 18 38  1  0  0  0  0
 18 39  1  0  0  0  0
 19 20  1  0  0  0  0
 19 40  1  0  0  0  0
 19 41  1  0  0  0  0
 20 21  1  0  0  0  0
 21 22  1  0  0  0  0
 21 23  1  0  0  0  0
 21 42  1  1  0  0  0
 22 43  1  0  0  0  0
 22 44  1  0  0  0  0
 22 45  1  0  0  0  0
 23 24  2  0  0  0  0
 23 25  1  0  0  0  0
 25 26  1  0  0  0  0
 25 30  1  0  0  0  0
 26 27  1  0  0  0  0
 26 46  1  0  0  0  0
 26 47  1  0  0  0  0
 27 28  1  0  0  0  0
 27 48  1  0  0  0  0
 27 49  1  0  0  0  0
 28 29  1  0  0  0  0
 29 30  1  0  0  0  0
 29 50  1  0  0  0  0
 29 51  1  0  0  0  0
 30 52  1  0  0  0  0
 30 53  1  0  0  0  0
M  CHG  1   6   1
M  END
$$$$
