GSV
 OpenBabel04051919383D

 55 58  0  0  1  0  0  0  0  0999 V2000
    5.3983    1.7316   16.8085 C   0  0  0  0  0  0  0  0  0  0  0  0
    6.5137    1.6760   15.4358 S   0  0  0  0  0  0  0  0  0  0  0  0
    6.6560    3.0236   14.9168 O   0  0  0  0  0  0  0  0  0  0  0  0
    6.0283    0.6035   14.5928 O   0  0  0  0  0  0  0  0  0  0  0  0
    8.1364    1.1660   16.0206 C   0  0  0  0  0  0  0  0  0  0  0  0
    8.8238    0.2289   15.2188 C   0  0  0  0  0  0  0  0  0  0  0  0
   10.0829   -0.2371   15.5924 C   0  0  0  0  0  0  0  0  0  0  0  0
   10.6803    0.2262   16.7584 C   0  0  0  0  0  0  0  0  0  0  0  0
   10.0080    1.1663   17.5465 C   0  0  0  0  0  0  0  0  0  0  0  0
    8.7313    1.6487   17.1962 C   0  0  0  0  0  0  0  0  0  0  0  0
    8.0992    2.6127   18.1080 C   0  0  0  0  0  0  0  0  0  0  0  0
    8.1756    3.9890   17.8697 C   0  0  0  0  0  0  0  0  0  0  0  0
    7.5531    4.8786   18.7410 C   0  0  0  0  0  0  0  0  0  0  0  0
    7.5951    6.1869   18.4530 F   0  0  0  0  0  0  0  0  0  0  0  0
    7.3929    2.1535   19.2296 C   0  0  0  0  0  0  0  0  0  0  0  0
    6.7194    3.0439   20.0707 C   0  0  0  0  0  0  0  0  0  0  0  0
    6.8076    4.4173   19.8398 C   0  0  0  0  0  0  0  0  0  0  0  0
    6.1592    5.3146   20.7043 N   0  0  0  0  0  0  0  0  0  0  0  0
    6.7627    6.4658   21.2216 C   0  0  0  0  0  0  0  0  0  0  0  0
    7.9245    6.8162   21.1021 O   0  0  0  0  0  0  0  0  0  0  0  0
    4.8055    5.1563   21.1675 C   0  0  0  0  0  0  0  0  0  0  0  0
    4.4051    6.5729   21.5514 C   0  0  0  0  0  0  0  0  0  0  0  0
    5.7116    7.1909   22.0420 C   0  0  2  0  0  0  0  0  0  0  0  0
    5.7553    8.6152   21.7668 N   0  0  0  0  0  0  0  0  0  0  0  0
    6.3814    9.6980   22.8643 S   0  0  0  0  0  0  0  0  0  0  0  0
    6.5587   10.9112   22.0933 O   0  0  0  0  0  0  0  0  0  0  0  0
    5.4524    9.6734   23.9725 O   0  0  0  0  0  0  0  0  0  0  0  0
    7.9404    9.1342   23.4072 C   0  0  0  0  0  0  0  0  0  0  0  0
    8.0701    8.7158   24.6806 C   0  0  0  0  0  0  0  0  0  0  0  0
    9.2785    8.2313   25.2792 C   0  0  0  0  0  0  0  0  0  0  0  0
   10.8356    8.4326   24.5600 S   0  0  0  0  0  0  0  0  0  0  0  0
    9.4114    7.5732   26.5011 C   0  0  0  0  0  0  0  0  0  0  0  0
   10.7635    7.2334   26.8231 C   0  0  0  0  0  0  0  0  0  0  0  0
   11.6138    7.6492   25.8367 C   0  0  0  0  0  0  0  0  0  0  0  0
   13.3187    7.4498   25.7945 Cl  0  0  0  0  0  0  0  0  0  0  0  0
    5.6132    2.5910   17.4356 H   0  0  0  0  0  0  0  0  0  0  0  0
    5.4429    0.7920   17.3630 H   0  0  0  0  0  0  0  0  0  0  0  0
    4.3878    1.8815   16.4220 H   0  0  0  0  0  0  0  0  0  0  0  0
    8.3821   -0.1429   14.2970 H   0  0  0  0  0  0  0  0  0  0  0  0
   10.6054   -0.9624   14.9715 H   0  0  0  0  0  0  0  0  0  0  0  0
   11.6572   -0.1302   17.0538 H   0  0  0  0  0  0  0  0  0  0  0  0
   10.4937    1.5195   18.4589 H   0  0  0  0  0  0  0  0  0  0  0  0
    8.6919    4.3869   16.9934 H   0  0  0  0  0  0  0  0  0  0  0  0
    7.3237    1.0857   19.4268 H   0  0  0  0  0  0  0  0  0  0  0  0
    6.1769    2.6556   20.9270 H   0  0  0  0  0  0  0  0  0  0  0  0
    4.7827    4.4890   22.0366 H   0  0  0  0  0  0  0  0  0  0  0  0
    4.1601    4.7576   20.3771 H   0  0  0  0  0  0  0  0  0  0  0  0
    3.6195    6.5945   22.3129 H   0  0  0  0  0  0  0  0  0  0  0  0
    4.0218    7.1045   20.6700 H   0  0  0  0  0  0  0  0  0  0  0  0
    5.8676    6.9607   23.1008 H   0  0  0  0  0  0  0  0  0  0  0  0
    5.5820    8.9762   20.8295 H   0  0  0  0  0  0  0  0  0  0  0  0
    8.7459    9.1709   22.6861 H   0  0  0  0  0  0  0  0  0  0  0  0
    7.1991    8.7266   25.3347 H   0  0  0  0  0  0  0  0  0  0  0  0
    8.5744    7.3349   27.1495 H   0  0  0  0  0  0  0  0  0  0  0  0
   11.0820    6.7177   27.7223 H   0  0  0  0  0  0  0  0  0  0  0  0
  1  2  1  0  0  0  0
  1 36  1  0  0  0  0
  1 37  1  0  0  0  0
  1 38  1  0  0  0  0
  2  3  2  0  0  0  0
  2  4  2  0  0  0  0
  2  5  1  0  0  0  0
  5  6  2  0  0  0  0
  5 10  1  0  0  0  0
  6  7  1  0  0  0  0
  6 39  1  0  0  0  0
  7  8  2  0  0  0  0
  7 40  1  0  0  0  0
  8  9  1  0  0  0  0
  8 41  1  0  0  0  0
  9 10  2  0  0  0  0
  9 42  1  0  0  0  0
 10 11  1  0  0  0  0
 11 12  2  0  0  0  0
 11 15  1  0  0  0  0
 12 13  1  0  0  0  0
 12 43  1  0  0  0  0
 13 14  1  0  0  0  0
 13 17  2  0  0  0  0
 15 16  2  0  0  0  0
 15 44  1  0  0  0  0
 16 17  1  0  0  0  0
 16 45  1  0  0  0  0
 17 18  1  0  0  0  0
 18 19  1  0  0  0  0
 18 21  1  0  0  0  0
 19 20  2  0  0  0  0
 19 23  1  0  0  0  0
 21 22  1  0  0  0  0
 21 46  1  0  0  0  0
 21 47  1  0  0  0  0
 22 23  1  0  0  0  0
 22 48  1  0  0  0  0
 22 49  1  0  0  0  0
 23 24  1  0  0  0  0
 23 50  1  1  0  0  0
 24 25  1  0  0  0  0
 24 51  1  0  0  0  0
 25 26  2  0  0  0  0
 25 27  2  0  0  0  0
 25 28  1  0  0  0  0
 28 29  2  0  0  0  0
 28 52  1  0  0  0  0
 29 30  1  0  0  0  0
 29 53  1  0  0  0  0
 30 31  1  0  0  0  0
 30 32  2  0  0  0  0
 31 34  1  0  0  0  0
 32 33  1  0  0  0  0
 32 54  1  0  0  0  0
 33 34  2  0  0  0  0
 33 55  1  0  0  0  0
 34 35  1  0  0  0  0
M  END
$$$$
