GSX
 OpenBabel04051918233D

 53 56  0  0  1  0  0  0  0  0999 V2000
   14.0843    7.5413   26.9786 Cl  0  0  0  0  0  0  0  0  0  0  0  0
   12.3983    7.7593   26.7096 C   0  0  0  0  0  0  0  0  0  0  0  0
   11.3855    7.3860   27.5520 C   0  0  0  0  0  0  0  0  0  0  0  0
   10.0994    7.6796   26.9912 C   0  0  0  0  0  0  0  0  0  0  0  0
   10.1744    8.2919   25.7462 C   0  0  0  0  0  0  0  0  0  0  0  0
    9.0968    8.6885   24.8458 C   0  0  0  0  0  0  0  0  0  0  0  0
    9.2123    9.4621   23.7014 C   0  0  0  0  0  0  0  0  0  0  0  0
    7.9922    9.6319   23.0016 C   0  0  0  0  0  0  0  0  0  0  0  0
    6.9342    8.9939   23.5991 C   0  0  0  0  0  0  0  0  0  0  0  0
    5.2342    8.8697   23.0737 S   0  0  0  0  0  0  0  0  0  0  0  0
    4.5047    8.3713   24.1897 O   0  0  0  0  0  0  0  0  0  0  0  0
    4.8674   10.1244   22.4157 O   0  0  0  0  0  0  0  0  0  0  0  0
    5.2162    7.7327   21.8626 N   0  0  0  0  0  0  0  0  0  0  0  0
    5.4742    6.3569   22.2561 C   0  0  1  0  0  0  0  0  0  0  0  0
    4.2990    5.4551   21.9285 C   0  0  0  0  0  0  0  0  0  0  0  0
    4.9293    4.1023   21.5967 C   0  0  0  0  0  0  0  0  0  0  0  0
    6.6231    5.7290   21.4783 C   0  0  0  0  0  0  0  0  0  0  0  0
    7.6650    6.2845   21.2197 O   0  0  0  0  0  0  0  0  0  0  0  0
    6.2817    4.4202   21.1743 N   0  0  0  0  0  0  0  0  0  0  0  0
    7.2154    3.4924   20.4743 C   0  0  1  0  0  0  0  0  0  0  0  0
    7.2035    2.0716   21.0236 C   0  0  0  0  0  0  0  0  0  0  0  0
    6.9896    3.4791   18.9487 C   0  0  0  0  0  0  0  0  0  0  0  0
    5.8871    3.8266   18.4922 O   0  0  0  0  0  0  0  0  0  0  0  0
    7.9977    3.0061   18.1086 N   0  0  0  0  0  0  0  0  0  0  0  0
    7.7512    3.0956   16.6587 C   0  0  0  0  0  0  0  0  0  0  0  0
    8.6808    2.2606   15.7796 C   0  0  0  0  0  0  0  0  0  0  0  0
   10.0284    2.2381   16.2598 O   0  0  0  0  0  0  0  0  0  0  0  0
   10.0824    1.7031   17.5814 C   0  0  0  0  0  0  0  0  0  0  0  0
    9.3572    2.6287   18.5494 C   0  0  0  0  0  0  0  0  0  0  0  0
    7.4613    8.1443   25.0072 S   0  0  0  0  0  0  0  0  0  0  0  0
   11.8399    8.4802   25.2871 S   0  0  0  0  0  0  0  0  0  0  0  0
   11.5323    6.9140   28.5191 H   0  0  0  0  0  0  0  0  0  0  0  0
    9.1683    7.4348   27.4886 H   0  0  0  0  0  0  0  0  0  0  0  0
   10.1395    9.8929   23.3517 H   0  0  0  0  0  0  0  0  0  0  0  0
    7.8758   10.2103   22.0926 H   0  0  0  0  0  0  0  0  0  0  0  0
    5.1701    8.0286   20.8922 H   0  0  0  0  0  0  0  0  0  0  0  0
    5.6935    6.3107   23.3239 H   0  0  0  0  0  0  0  0  0  0  0  0
    3.7320    5.8372   21.0691 H   0  0  0  0  0  0  0  0  0  0  0  0
    3.6128    5.3754   22.7809 H   0  0  0  0  0  0  0  0  0  0  0  0
    4.3731    3.5888   20.8087 H   0  0  0  0  0  0  0  0  0  0  0  0
    4.9737    3.4652   22.4857 H   0  0  0  0  0  0  0  0  0  0  0  0
    8.2178    3.9062   20.6274 H   0  0  0  0  0  0  0  0  0  0  0  0
    7.8891    1.4211   20.4785 H   0  0  0  0  0  0  0  0  0  0  0  0
    6.2168    1.6099   20.9373 H   0  0  0  0  0  0  0  0  0  0  0  0
    7.5137    2.0594   22.0715 H   0  0  0  0  0  0  0  0  0  0  0  0
    7.8234    4.1466   16.3463 H   0  0  0  0  0  0  0  0  0  0  0  0
    6.7215    2.7619   16.4716 H   0  0  0  0  0  0  0  0  0  0  0  0
    8.7003    2.6784   14.7678 H   0  0  0  0  0  0  0  0  0  0  0  0
    8.3045    1.2303   15.7141 H   0  0  0  0  0  0  0  0  0  0  0  0
   11.1375    1.6109   17.8659 H   0  0  0  0  0  0  0  0  0  0  0  0
    9.6369    0.6966   17.5965 H   0  0  0  0  0  0  0  0  0  0  0  0
    9.2964    2.1143   19.5017 H   0  0  0  0  0  0  0  0  0  0  0  0
    9.9567    3.5295   18.7021 H   0  0  0  0  0  0  0  0  0  0  0  0
  1  2  1  0  0  0  0
  2  3  2  0  0  0  0
  2 31  1  0  0  0  0
  3  4  1  0  0  0  0
  3 32  1  0  0  0  0
  4  5  2  0  0  0  0
  4 33  1  0  0  0  0
  5  6  1  0  0  0  0
  5 31  1  0  0  0  0
  6  7  2  0  0  0  0
  6 30  1  0  0  0  0
  7  8  1  0  0  0  0
  7 34  1  0  0  0  0
  8  9  2  0  0  0  0
  8 35  1  0  0  0  0
  9 10  1  0  0  0  0
  9 30  1  0  0  0  0
 10 11  2  0  0  0  0
 10 12  2  0  0  0  0
 10 13  1  0  0  0  0
 13 14  1  0  0  0  0
 13 36  1  0  0  0  0
 14 15  1  0  0  0  0
 14 17  1  0  0  0  0
 14 37  1  1  0  0  0
 15 16  1  0  0  0  0
 15 38  1  0  0  0  0
 15 39  1  0  0  0  0
 16 19  1  0  0  0  0
 16 40  1  0  0  0  0
 16 41  1  0  0  0  0
 17 18  2  0  0  0  0
 17 19  1  0  0  0  0
 19 20  1  0  0  0  0
 20 21  1  0  0  0  0
 20 22  1  0  0  0  0
 20 42  1  1  0  0  0
 21 43  1  0  0  0  0
 21 44  1  0  0  0  0
 21 45  1  0  0  0  0
 22 23  2  0  0  0  0
 22 24  1  0  0  0  0
 24 25  1  0  0  0  0
 24 29  1  0  0  0  0
 25 26  1  0  0  0  0
 25 46  1  0  0  0  0
 25 47  1  0  0  0  0
 26 27  1  0  0  0  0
 26 48  1  0  0  0  0
 26 49  1  0  0  0  0
 27 28  1  0  0  0  0
 28 29  1  0  0  0  0
 28 50  1  0  0  0  0
 28 51  1  0  0  0  0
 29 52  1  0  0  0  0
 29 53  1  0  0  0  0
M  END
$$$$
