GTL
 OpenBabel04051918203D

 26 26  0  0  1  0  0  0  0  0999 V2000
   -1.0330   10.6901   10.5810 C   0  0  0  0  0  0  0  0  0  0  0  0
   -0.6573   10.3518   11.7957 N   0  3  0  0  0  0  0  0  0  0  0  0
    0.0027   11.4434    9.7658 C   0  0  2  0  0  0  0  0  0  0  0  0
   -2.2252   10.4263   10.0820 N   0  0  0  0  0  0  0  0  0  0  0  0
   -1.5003    9.5408   12.5632 O   0  0  0  0  0  0  0  0  0  0  0  0
    0.4665   12.5908   10.4981 O   0  0  0  0  0  0  0  0  0  0  0  0
   -0.5185   11.9067    8.4027 C   0  0  1  0  0  0  0  0  0  0  0  0
    0.5847   12.1955    7.5361 O   0  0  0  0  0  0  0  0  0  0  0  0
   -1.4358   10.8411    7.7869 C   0  0  1  0  0  0  0  0  0  0  0  0
   -0.7301    9.5944    7.7397 O   0  0  0  0  0  0  0  0  0  0  0  0
   -2.6775   10.7153    8.6953 C   0  0  1  0  0  0  0  0  0  0  0  0
   -3.6499    9.5983    8.2783 C   0  0  0  0  0  0  0  0  0  0  0  0
   -3.2032    8.3087    8.6991 O   0  0  0  0  0  0  0  0  0  0  0  0
    0.8789   10.7940    9.6357 H   0  0  0  0  0  0  0  0  0  0  0  0
   -2.8798    9.9347   10.6934 H   0  0  0  0  0  0  0  0  0  0  0  0
   -1.5712    8.7008   12.0557 H   0  0  0  0  0  0  0  0  0  0  0  0
   -0.2216   13.2815   10.4761 H   0  0  0  0  0  0  0  0  0  0  0  0
   -1.0657   12.8494    8.5029 H   0  0  0  0  0  0  0  0  0  0  0  0
    1.1796   12.8248    7.9923 H   0  0  0  0  0  0  0  0  0  0  0  0
   -1.7180   11.1337    6.7674 H   0  0  0  0  0  0  0  0  0  0  0  0
   -1.1535    9.0184    7.0793 H   0  0  0  0  0  0  0  0  0  0  0  0
   -3.2159   11.6706    8.7101 H   0  0  0  0  0  0  0  0  0  0  0  0
   -3.8460    9.5995    7.2014 H   0  0  0  0  0  0  0  0  0  0  0  0
   -4.6051    9.7546    8.7913 H   0  0  0  0  0  0  0  0  0  0  0  0
   -2.4210    8.0401    8.1862 H   0  0  0  0  0  0  0  0  0  0  0  0
    0.2064   10.6757   12.2257 H   0  0  0  0  0  0  0  0  0  0  0  0
  1  2  2  0  0  0  0
  1  3  1  0  0  0  0
  1  4  1  0  0  0  0
  2  5  1  0  0  0  0
  2 26  1  0  0  0  0
  3  6  1  0  0  0  0
  3  7  1  0  0  0  0
  3 14  1  6  0  0  0
  4 11  1  0  0  0  0
  4 15  1  0  0  0  0
  5 16  1  0  0  0  0
  6 17  1  0  0  0  0
  7  8  1  0  0  0  0
  7  9  1  0  0  0  0
  7 18  1  1  0  0  0
  8 19  1  0  0  0  0
  9 10  1  0  0  0  0
  9 11  1  0  0  0  0
  9 20  1  6  0  0  0
 10 21  1  0  0  0  0
 11 12  1  0  0  0  0
 11 22  1  6  0  0  0
 12 13  1  0  0  0  0
 12 23  1  0  0  0  0
 12 24  1  0  0  0  0
 13 25  1  0  0  0  0
M  CHG  1   2   1
M  END
$$$$
