GUI
 OpenBabel04051920163D

 83 87  0  0  1  0  0  0  0  0999 V2000
    4.1856   15.4787   10.0241 C   0  0  0  0  0  0  0  0  0  0  0  0
    4.6486   16.3767    9.0766 C   0  0  0  0  0  0  0  0  0  0  0  0
    3.9137   17.4546    8.7492 N   0  0  0  0  0  0  0  0  0  0  0  0
    2.7093   17.6575    9.3029 C   0  0  0  0  0  0  0  0  0  0  0  0
    2.1900   16.8238   10.2153 N   0  0  0  0  0  0  0  0  0  0  0  0
    2.9517   15.7601   10.5668 C   0  0  0  0  0  0  0  0  0  0  0  0
    1.9334   18.7413    8.8967 N   0  0  0  0  0  0  0  0  0  0  0  0
    2.2653   19.8972    8.1628 C   0  0  0  0  0  0  0  0  0  0  0  0
    3.5885   20.2896    7.9814 C   0  0  0  0  0  0  0  0  0  0  0  0
    3.9291   21.4216    7.2357 C   0  0  0  0  0  0  0  0  0  0  0  0
    2.9726   22.2386    6.6214 C   0  0  0  0  0  0  0  0  0  0  0  0
    1.6383   21.8057    6.7645 C   0  0  0  0  0  0  0  0  0  0  0  0
    1.2750   20.6670    7.5236 C   0  0  0  0  0  0  0  0  0  0  0  0
   -0.0239   20.2401    7.7046 O   0  0  0  0  0  0  0  0  0  0  0  0
   -1.0534   21.0030    7.0832 C   0  0  0  0  0  0  0  0  0  0  0  0
    3.3326   23.4459    5.9879 N   0  0  0  0  0  0  0  0  0  0  0  0
    4.6926   23.5459    5.4488 C   0  0  0  0  0  0  0  0  0  0  0  0
    5.0921   24.9853    5.1591 C   0  0  0  0  0  0  0  0  0  0  0  0
    4.0870   25.6651    4.2199 C   0  0  0  0  0  0  0  0  0  0  0  0
    2.7523   25.6614    4.9882 C   0  0  0  0  0  0  0  0  0  0  0  0
    2.2877   24.2437    5.3344 C   0  0  0  0  0  0  0  0  0  0  0  0
    4.4864   27.0527    3.8356 N   0  0  2  0  0  0  0  0  0  0  0  0
    3.6227   27.6013    2.7623 C   0  0  0  0  0  0  0  0  0  0  0  0
    3.9475   29.0771    2.4410 C   0  0  0  0  0  0  0  0  0  0  0  0
    5.4145   29.2493    2.0893 N   0  3  2  0  0  0  0  0  0  0  0  0
    6.3066   28.6250    3.1409 C   0  0  0  0  0  0  0  0  0  0  0  0
    5.8986   27.1658    3.4096 C   0  0  0  0  0  0  0  0  0  0  0  0
    5.7688   30.6896    1.8689 C   0  0  0  0  0  0  0  0  0  0  0  0
    5.8974   16.1715    8.4476 N   0  0  0  0  0  0  0  0  0  0  0  0
    6.5304   16.8525    7.3861 C   0  0  0  0  0  0  0  0  0  0  0  0
    7.9280   16.8186    7.2077 C   0  0  0  0  0  0  0  0  0  0  0  0
    8.5487   17.5222    6.1553 C   0  0  0  0  0  0  0  0  0  0  0  0
    7.7920   18.3154    5.2974 C   0  0  0  0  0  0  0  0  0  0  0  0
    6.4173   18.3835    5.4680 C   0  0  0  0  0  0  0  0  0  0  0  0
    5.8027   17.6553    6.4921 C   0  0  0  0  0  0  0  0  0  0  0  0
    8.9834   15.8355    8.2577 S   0  0  0  0  0  0  0  0  0  0  0  0
    9.7214   16.9631    9.4437 C   0  0  0  0  0  0  0  0  0  0  0  0
    8.6976   17.8736   10.1124 C   0  0  0  0  0  0  0  0  0  0  0  0
   10.8627   17.7716    8.8383 C   0  0  0  0  0  0  0  0  0  0  0  0
   10.0335   15.2988    7.4092 O   0  0  0  0  0  0  0  0  0  0  0  0
    8.1295   14.9214    8.9985 O   0  0  0  0  0  0  0  0  0  0  0  0
    5.0704   14.0965   10.5268 Cl  0  0  0  0  0  0  0  0  0  0  0  0
    2.5185   15.1184   11.3276 H   0  0  0  0  0  0  0  0  0  0  0  0
    0.9906   18.7030    9.2560 H   0  0  0  0  0  0  0  0  0  0  0  0
    4.3995   19.7460    8.4564 H   0  0  0  0  0  0  0  0  0  0  0  0
    4.9895   21.6390    7.2016 H   0  0  0  0  0  0  0  0  0  0  0  0
    0.8540   22.3660    6.2744 H   0  0  0  0  0  0  0  0  0  0  0  0
   -2.0147   20.5401    7.3257 H   0  0  0  0  0  0  0  0  0  0  0  0
   -0.9498   20.9946    5.9924 H   0  0  0  0  0  0  0  0  0  0  0  0
   -1.0751   22.0285    7.4687 H   0  0  0  0  0  0  0  0  0  0  0  0
    4.7885   22.9391    4.5398 H   0  0  0  0  0  0  0  0  0  0  0  0
    5.4463   23.1996    6.1603 H   0  0  0  0  0  0  0  0  0  0  0  0
    6.0980   24.9461    4.7320 H   0  0  0  0  0  0  0  0  0  0  0  0
    5.1625   25.5463    6.1024 H   0  0  0  0  0  0  0  0  0  0  0  0
    3.9927   25.0581    3.3094 H   0  0  0  0  0  0  0  0  0  0  0  0
    1.9497   26.1443    4.4231 H   0  0  0  0  0  0  0  0  0  0  0  0
    2.8642   26.2371    5.9182 H   0  0  0  0  0  0  0  0  0  0  0  0
    1.4315   24.3717    6.0078 H   0  0  0  0  0  0  0  0  0  0  0  0
    1.9351   23.7407    4.4255 H   0  0  0  0  0  0  0  0  0  0  0  0
    2.5680   27.5705    3.0488 H   0  0  0  0  0  0  0  0  0  0  0  0
    3.7269   27.0000    1.8492 H   0  0  0  0  0  0  0  0  0  0  0  0
    3.7367   29.7222    3.3014 H   0  0  0  0  0  0  0  0  0  0  0  0
    3.3708   29.4163    1.5742 H   0  0  0  0  0  0  0  0  0  0  0  0
    6.2190   29.2287    4.0517 H   0  0  0  0  0  0  0  0  0  0  0  0
    7.3340   28.6733    2.7648 H   0  0  0  0  0  0  0  0  0  0  0  0
    6.0791   26.5546    2.5150 H   0  0  0  0  0  0  0  0  0  0  0  0
    6.5789   26.8225    4.1929 H   0  0  0  0  0  0  0  0  0  0  0  0
    5.1239   31.0820    1.0790 H   0  0  0  0  0  0  0  0  0  0  0  0
    6.8161   30.7364    1.5592 H   0  0  0  0  0  0  0  0  0  0  0  0
    5.6166   31.2337    2.8053 H   0  0  0  0  0  0  0  0  0  0  0  0
    6.4425   15.4179    8.8695 H   0  0  0  0  0  0  0  0  0  0  0  0
    9.6227   17.4509    5.9953 H   0  0  0  0  0  0  0  0  0  0  0  0
    8.2702   18.8635    4.4901 H   0  0  0  0  0  0  0  0  0  0  0  0
    5.8059   18.9870    4.8011 H   0  0  0  0  0  0  0  0  0  0  0  0
    4.7172   17.7111    6.5566 H   0  0  0  0  0  0  0  0  0  0  0  0
   10.1477   16.3083   10.2146 H   0  0  0  0  0  0  0  0  0  0  0  0
    9.1770   18.4892   10.8818 H   0  0  0  0  0  0  0  0  0  0  0  0
    7.9067   17.2927   10.5974 H   0  0  0  0  0  0  0  0  0  0  0  0
    8.2270   18.5537    9.3958 H   0  0  0  0  0  0  0  0  0  0  0  0
   11.3454   18.3918    9.6007 H   0  0  0  0  0  0  0  0  0  0  0  0
   10.5117   18.4342    8.0429 H   0  0  0  0  0  0  0  0  0  0  0  0
   11.6297   17.1146    8.4152 H   0  0  0  0  0  0  0  0  0  0  0  0
    5.5791   28.7442    1.2096 H   0  0  0  0  0  0  0  0  0  0  0  0
  1  2  2  0  0  0  0
  1  6  1  0  0  0  0
  1 42  1  0  0  0  0
  2  3  1  0  0  0  0
  2 29  1  0  0  0  0
  3  4  2  0  0  0  0
  4  5  1  0  0  0  0
  4  7  1  0  0  0  0
  5  6  2  0  0  0  0
  6 43  1  0  0  0  0
  7  8  1  0  0  0  0
  7 44  1  0  0  0  0
  8  9  2  0  0  0  0
  8 13  1  0  0  0  0
  9 10  1  0  0  0  0
  9 45  1  0  0  0  0
 10 11  2  0  0  0  0
 10 46  1  0  0  0  0
 11 12  1  0  0  0  0
 11 16  1  0  0  0  0
 12 13  2  0  0  0  0
 12 47  1  0  0  0  0
 13 14  1  0  0  0  0
 14 15  1  0  0  0  0
 15 48  1  0  0  0  0
 15 49  1  0  0  0  0
 15 50  1  0  0  0  0
 16 17  1  0  0  0  0
 16 21  1  0  0  0  0
 17 18  1  0  0  0  0
 17 51  1  0  0  0  0
 17 52  1  0  0  0  0
 18 19  1  0  0  0  0
 18 53  1  0  0  0  0
 18 54  1  0  0  0  0
 19 20  1  0  0  0  0
 19 55  1  0  0  0  0
 20 21  1  0  0  0  0
 20 56  1  0  0  0  0
 20 57  1  0  0  0  0
 21 58  1  0  0  0  0
 21 59  1  0  0  0  0
 22 19  1  6  0  0  0
 22 23  1  0  0  0  0
 22 27  1  0  0  0  0
 23 24  1  0  0  0  0
 23 60  1  0  0  0  0
 23 61  1  0  0  0  0
 24 25  1  0  0  0  0
 24 62  1  0  0  0  0
 24 63  1  0  0  0  0
 25 26  1  0  0  0  0
 25 28  1  0  0  0  0
 25 83  1  6  0  0  0
 26 27  1  0  0  0  0
 26 64  1  0  0  0  0
 26 65  1  0  0  0  0
 27 66  1  0  0  0  0
 27 67  1  0  0  0  0
 28 68  1  0  0  0  0
 28 69  1  0  0  0  0
 28 70  1  0  0  0  0
 29 30  1  0  0  0  0
 29 71  1  0  0  0  0
 30 31  2  0  0  0  0
 30 35  1  0  0  0  0
 31 32  1  0  0  0  0
 31 36  1  0  0  0  0
 32 33  2  0  0  0  0
 32 72  1  0  0  0  0
 33 34  1  0  0  0  0
 33 73  1  0  0  0  0
 34 35  2  0  0  0  0
 34 74  1  0  0  0  0
 35 75  1  0  0  0  0
 36 37  1  0  0  0  0
 36 40  2  0  0  0  0
 36 41  2  0  0  0  0
 37 38  1  0  0  0  0
 37 39  1  0  0  0  0
 37 76  1  0  0  0  0
 38 77  1  0  0  0  0
 38 78  1  0  0  0  0
 38 79  1  0  0  0  0
 39 80  1  0  0  0  0
 39 81  1  0  0  0  0
 39 82  1  0  0  0  0
M  CHG  1  25   1
M  END
$$$$
