H21
 OpenBabel04051919493D

 46 49  0  0  0  0  0  0  0  0999 V2000
   -3.6008    9.6366   19.9316 F   0  0  0  0  0  0  0  0  0  0  0  0
   -4.8166    9.0689   19.9316 C   0  0  0  0  0  0  0  0  0  0  0  0
   -5.0536    7.9982   19.0753 C   0  0  0  0  0  0  0  0  0  0  0  0
   -6.2975    7.3661   19.0994 C   0  0  0  0  0  0  0  0  0  0  0  0
   -6.5610    6.2772   18.2142 N   0  3  0  0  0  0  0  0  0  0  0  0
   -6.3256    4.9684   18.6131 C   0  0  0  0  0  0  0  0  0  0  0  0
   -6.5399    3.9414   17.7795 C   0  0  0  0  0  0  0  0  0  0  0  0
   -7.0225    4.1784   16.4434 C   0  0  0  0  0  0  0  0  0  0  0  0
   -7.2542    5.4275   16.0217 C   0  0  0  0  0  0  0  0  0  0  0  0
   -7.0121    6.5939   16.9216 C   0  0  0  0  0  0  0  0  0  0  0  0
   -7.2275    7.7239   16.4888 O   0  0  0  0  0  0  0  0  0  0  0  0
   -7.2891    7.8072   19.9893 C   0  0  0  0  0  0  0  0  0  0  0  0
   -7.0359    8.8731   20.8646 C   0  0  0  0  0  0  0  0  0  0  0  0
   -5.7980    9.5135   20.8266 C   0  0  0  0  0  0  0  0  0  0  0  0
   -5.5776   10.6291   21.6591 N   0  0  0  0  0  0  0  0  0  0  0  0
   -5.1955   11.8418   21.1208 C   0  0  0  0  0  0  0  0  0  0  0  0
   -5.2353   12.0669   19.9033 O   0  0  0  0  0  0  0  0  0  0  0  0
   -4.8547   12.9924   22.0364 C   0  0  0  0  0  0  0  0  0  0  0  0
   -4.7672   12.6597   23.4330 N   0  3  0  0  0  0  0  0  0  0  0  0
   -5.4868   13.1513   24.4730 C   0  0  0  0  0  0  0  0  0  0  0  0
   -3.6001   10.7737   26.0232 N   0  0  0  0  0  0  0  0  0  0  0  0
   -2.3958   10.1417   25.7942 C   0  0  0  0  0  0  0  0  0  0  0  0
   -1.6218   10.4377   24.8879 O   0  0  0  0  0  0  0  0  0  0  0  0
   -2.1043    9.0783   26.7542 C   0  0  0  0  0  0  0  0  0  0  0  0
   -2.7213    8.7347   27.9478 C   0  0  0  0  0  0  0  0  0  0  0  0
   -2.1680    7.5505   28.5288 C   0  0  0  0  0  0  0  0  0  0  0  0
   -0.8165    7.9882   26.4006 S   0  0  0  0  0  0  0  0  0  0  0  0
   -1.1495    7.0526   27.7609 C   0  0  0  0  0  0  0  0  0  0  0  0
   -0.2425    5.6273   28.0440 Cl  0  0  0  0  0  0  0  0  0  0  0  0
   -5.1687   12.4872   25.5651 N   0  0  0  0  0  0  0  0  0  0  0  0
   -3.9325   11.7004   23.8409 N   0  0  0  0  0  0  0  0  0  0  0  0
   -4.1680   11.6502   25.1473 C   0  0  0  0  0  0  0  0  0  0  0  0
   -4.2696    7.6787   18.3980 H   0  0  0  0  0  0  0  0  0  0  0  0
   -5.9557    4.8212   19.6170 H   0  0  0  0  0  0  0  0  0  0  0  0
   -6.3515    2.9173   18.0924 H   0  0  0  0  0  0  0  0  0  0  0  0
   -7.1919    3.3299   15.7867 H   0  0  0  0  0  0  0  0  0  0  0  0
   -7.6195    5.6479   15.0271 H   0  0  0  0  0  0  0  0  0  0  0  0
   -8.2710    7.3413   19.9826 H   0  0  0  0  0  0  0  0  0  0  0  0
   -7.8286    9.2406   21.5111 H   0  0  0  0  0  0  0  0  0  0  0  0
   -5.5270   10.4622   22.6607 H   0  0  0  0  0  0  0  0  0  0  0  0
   -5.6224   13.7630   21.9074 H   0  0  0  0  0  0  0  0  0  0  0  0
   -3.8846   13.3987   21.7338 H   0  0  0  0  0  0  0  0  0  0  0  0
   -6.2135   13.9482   24.3799 H   0  0  0  0  0  0  0  0  0  0  0  0
   -4.1358   10.6045   26.8537 H   0  0  0  0  0  0  0  0  0  0  0  0
   -3.5469    9.2777   28.3918 H   0  0  0  0  0  0  0  0  0  0  0  0
   -2.5166    7.0929   29.4461 H   0  0  0  0  0  0  0  0  0  0  0  0
  1  2  1  0  0  0  0
  2  3  2  0  0  0  0
  2 14  1  0  0  0  0
  3  4  1  0  0  0  0
  3 33  1  0  0  0  0
  4  5  1  0  0  0  0
  4 12  2  0  0  0  0
  5  6  1  0  0  0  0
  5 10  1  0  0  0  0
  6  7  2  0  0  0  0
  6 34  1  0  0  0  0
  7  8  1  0  0  0  0
  7 35  1  0  0  0  0
  8  9  2  0  0  0  0
  8 36  1  0  0  0  0
  9 10  1  0  0  0  0
  9 37  1  0  0  0  0
 10 11  2  0  0  0  0
 12 13  1  0  0  0  0
 12 38  1  0  0  0  0
 13 14  2  0  0  0  0
 13 39  1  0  0  0  0
 14 15  1  0  0  0  0
 15 16  1  0  0  0  0
 15 40  1  0  0  0  0
 16 17  2  0  0  0  0
 16 18  1  0  0  0  0
 18 19  1  0  0  0  0
 18 41  1  0  0  0  0
 18 42  1  0  0  0  0
 19 20  2  0  0  0  0
 19 31  1  0  0  0  0
 20 30  1  0  0  0  0
 20 43  1  0  0  0  0
 21 22  1  0  0  0  0
 21 32  1  0  0  0  0
 21 44  1  0  0  0  0
 22 23  2  0  0  0  0
 22 24  1  0  0  0  0
 24 25  2  0  0  0  0
 24 27  1  0  0  0  0
 25 26  1  0  0  0  0
 25 45  1  0  0  0  0
 26 28  2  0  0  0  0
 26 46  1  0  0  0  0
 27 28  1  0  0  0  0
 28 29  1  0  0  0  0
 30 32  1  0  0  0  0
 31 32  2  0  0  0  0
M  CHG  2   5   1  19   1
M  END
$$$$
