H33
 OpenBabel04051919293D

 21 22  0  0  0  0  0  0  0  0999 V2000
   38.0789   20.5532   22.2340 N   0  3  0  0  0  0  0  0  0  0  0  0
   38.0746   20.3640   23.6217 C   0  0  0  0  0  0  0  0  0  0  0  0
   38.3173   21.5576   24.3956 C   0  0  0  0  0  0  0  0  0  0  0  0
   38.5241   22.7715   23.8018 C   0  0  0  0  0  0  0  0  0  0  0  0
   38.5127   22.9351   22.4379 N   0  3  0  0  0  0  0  0  0  0  0  0
   38.2818   21.7750   21.5904 C   0  0  0  0  0  0  0  0  0  0  0  0
   38.3807   21.6775   25.7689 N   0  0  0  0  0  0  0  0  0  0  0  0
   38.6231   22.9475   25.9699 C   0  0  0  0  0  0  0  0  0  0  0  0
   38.7194   23.6657   24.8191 N   0  3  0  0  0  0  0  0  0  0  0  0
   38.7346   24.2449   21.8052 C   0  0  0  0  0  0  0  0  0  0  0  0
   37.8438   19.3771   21.4032 C   0  0  0  0  0  0  0  0  0  0  0  0
   38.2826   21.9493   20.3847 O   0  0  0  0  0  0  0  0  0  0  0  0
   37.8853   19.2767   24.1563 O   0  0  0  0  0  0  0  0  0  0  0  0
   38.8186   23.7532   27.4460 Cl  0  0  0  0  0  0  0  0  0  0  0  0
   38.8975   24.6567   24.7628 H   0  0  0  0  0  0  0  0  0  0  0  0
   38.8943   25.0216   22.5642 H   0  0  0  0  0  0  0  0  0  0  0  0
   37.8575   24.5304   21.2196 H   0  0  0  0  0  0  0  0  0  0  0  0
   39.6262   24.2107   21.1746 H   0  0  0  0  0  0  0  0  0  0  0  0
   37.6954   18.4677   21.9955 H   0  0  0  0  0  0  0  0  0  0  0  0
   38.6987   19.2131   20.7386 H   0  0  0  0  0  0  0  0  0  0  0  0
   36.9516   19.5293   20.7862 H   0  0  0  0  0  0  0  0  0  0  0  0
  1  2  1  0  0  0  0
  1  6  1  0  0  0  0
  1 11  1  0  0  0  0
  2  3  1  0  0  0  0
  2 13  2  0  0  0  0
  3  4  2  0  0  0  0
  3  7  1  0  0  0  0
  4  5  1  0  0  0  0
  4  9  1  0  0  0  0
  5  6  1  0  0  0  0
  5 10  1  0  0  0  0
  6 12  2  0  0  0  0
  7  8  1  0  0  0  0
  8  9  2  0  0  0  0
  8 14  1  0  0  0  0
  9 15  1  0  0  0  0
 10 16  1  0  0  0  0
 10 17  1  0  0  0  0
 10 18  1  0  0  0  0
 11 19  1  0  0  0  0
 11 20  1  0  0  0  0
 11 21  1  0  0  0  0
M  CHG  3   1   1   5   1   9   1
M  END
$$$$
