HCY
 OpenBabel04051919353D

 56 59  0  0  1  0  0  0  0  0999 V2000
   48.5859  -15.4634   11.6608 C   0  0  0  0  0  0  0  0  0  0  0  0
   48.1677  -15.9118   13.0365 C   0  0  0  0  0  0  0  0  0  0  0  0
   47.8801  -14.7476   13.9451 C   0  0  0  0  0  0  0  0  0  0  0  0
   47.4149  -13.4836   13.3879 C   0  0  0  0  0  0  0  0  0  0  0  0
   47.3155  -13.2886   12.0665 C   0  0  0  0  0  0  0  0  0  0  0  0
   46.7227  -11.9966   11.5630 C   0  0  0  0  0  0  0  0  0  0  0  0
   47.5956  -11.3410   10.5175 C   0  0  0  0  0  0  0  0  0  0  0  0
   48.0889  -12.3088    9.4332 C   0  0  2  0  0  0  0  0  0  0  0  0
   48.7341  -13.5816   10.0345 C   0  0  1  0  0  0  0  0  0  0  0  0
   47.7677  -14.3111   11.0218 C   0  0  1  0  0  0  0  0  0  0  0  0
   49.4284  -14.4892    8.9712 C   0  0  2  0  0  0  0  0  0  0  0  0
   50.3540  -13.6998    8.0198 C   0  0  0  0  0  0  0  0  0  0  0  0
   49.6976  -12.4255    7.4428 C   0  0  1  0  0  0  0  0  0  0  0  0
   49.1562  -11.5934    8.6175 C   0  0  1  0  0  0  0  0  0  0  0  0
   48.7476  -10.2681    7.9932 C   0  0  0  0  0  0  0  0  0  0  0  0
   49.7361  -10.0679    6.8429 C   0  0  0  0  0  0  0  0  0  0  0  0
   50.6255  -11.3417    6.7967 C   0  0  2  0  0  0  0  0  0  0  0  0
   48.5685  -12.8325    6.4606 C   0  0  0  0  0  0  0  0  0  0  0  0
   46.4996  -14.8739   10.3460 C   0  0  0  0  0  0  0  0  0  0  0  0
   51.0618  -11.6214    5.3441 C   0  0  0  0  0  0  0  0  0  0  0  0
   52.0912  -12.7212    5.1320 C   0  0  0  0  0  0  0  0  0  0  0  0
   47.9383  -14.8719   15.1754 O   0  0  0  0  0  0  0  0  0  0  0  0
   48.4846  -15.2374    8.2161 O   0  0  0  0  0  0  0  0  0  0  0  0
   51.7528  -11.0459    7.6284 O   0  0  0  0  0  0  0  0  0  0  0  0
   50.5750  -11.0328    4.3746 O   0  0  0  0  0  0  0  0  0  0  0  0
   52.3957  -12.9298    3.7642 O   0  0  0  0  0  0  0  0  0  0  0  0
   48.5731  -16.3427   10.9929 H   0  0  0  0  0  0  0  0  0  0  0  0
   49.6405  -15.1670   11.7321 H   0  0  0  0  0  0  0  0  0  0  0  0
   48.9994  -16.4706   13.4802 H   0  0  0  0  0  0  0  0  0  0  0  0
   47.2932  -16.5685   13.0003 H   0  0  0  0  0  0  0  0  0  0  0  0
   47.1082  -12.7214   14.1052 H   0  0  0  0  0  0  0  0  0  0  0  0
   46.5872  -11.2791   12.3817 H   0  0  0  0  0  0  0  0  0  0  0  0
   45.7247  -12.1811   11.1517 H   0  0  0  0  0  0  0  0  0  0  0  0
   48.4545  -10.8710   11.0142 H   0  0  0  0  0  0  0  0  0  0  0  0
   47.0255  -10.5271   10.0516 H   0  0  0  0  0  0  0  0  0  0  0  0
   47.2370  -12.5809    8.8012 H   0  0  0  0  0  0  0  0  0  0  0  0
   49.5711  -13.2125   10.6518 H   0  0  0  0  0  0  0  0  0  0  0  0
   50.0475  -15.2346    9.4818 H   0  0  0  0  0  0  0  0  0  0  0  0
   50.6509  -14.3652    7.2028 H   0  0  0  0  0  0  0  0  0  0  0  0
   51.2612  -13.4450    8.5794 H   0  0  0  0  0  0  0  0  0  0  0  0
   49.9881  -11.3750    9.3093 H   0  0  0  0  0  0  0  0  0  0  0  0
   48.7998   -9.4445    8.7117 H   0  0  0  0  0  0  0  0  0  0  0  0
   47.7194  -10.3098    7.6154 H   0  0  0  0  0  0  0  0  0  0  0  0
   50.3335   -9.1665    7.0076 H   0  0  0  0  0  0  0  0  0  0  0  0
   49.1597   -9.9231    5.9235 H   0  0  0  0  0  0  0  0  0  0  0  0
   47.8768  -13.5571    6.8908 H   0  0  0  0  0  0  0  0  0  0  0  0
   48.9826  -13.2843    5.5577 H   0  0  0  0  0  0  0  0  0  0  0  0
   47.9412  -11.9899    6.1653 H   0  0  0  0  0  0  0  0  0  0  0  0
   45.8488  -15.3703   11.0729 H   0  0  0  0  0  0  0  0  0  0  0  0
   46.7252  -15.6196    9.5821 H   0  0  0  0  0  0  0  0  0  0  0  0
   45.9082  -14.0892    9.8603 H   0  0  0  0  0  0  0  0  0  0  0  0
   51.7023  -13.6619    5.5172 H   0  0  0  0  0  0  0  0  0  0  0  0
   53.0138  -12.4594    5.6546 H   0  0  0  0  0  0  0  0  0  0  0  0
   48.9614  -15.8591    7.6400 H   0  0  0  0  0  0  0  0  0  0  0  0
   52.3505  -11.8076    7.6887 H   0  0  0  0  0  0  0  0  0  0  0  0
   51.5406  -12.9536    3.2928 H   0  0  0  0  0  0  0  0  0  0  0  0
  1  2  1  0  0  0  0
  1 10  1  0  0  0  0
  1 27  1  0  0  0  0
  1 28  1  0  0  0  0
  2  3  1  0  0  0  0
  2 29  1  0  0  0  0
  2 30  1  0  0  0  0
  3  4  1  0  0  0  0
  3 22  2  0  0  0  0
  4  5  2  0  0  0  0
  4 31  1  0  0  0  0
  5  6  1  0  0  0  0
  5 10  1  0  0  0  0
  6  7  1  0  0  0  0
  6 32  1  0  0  0  0
  6 33  1  0  0  0  0
  7  8  1  0  0  0  0
  7 34  1  0  0  0  0
  7 35  1  0  0  0  0
  8  9  1  0  0  0  0
  8 14  1  0  0  0  0
  8 36  1  6  0  0  0
  9 10  1  0  0  0  0
  9 11  1  0  0  0  0
  9 37  1  1  0  0  0
 10 19  1  6  0  0  0
 11 12  1  0  0  0  0
 11 23  1  0  0  0  0
 11 38  1  1  0  0  0
 12 13  1  0  0  0  0
 12 39  1  0  0  0  0
 12 40  1  0  0  0  0
 13 14  1  0  0  0  0
 13 17  1  0  0  0  0
 13 18  1  6  0  0  0
 14 15  1  0  0  0  0
 14 41  1  1  0  0  0
 15 16  1  0  0  0  0
 15 42  1  0  0  0  0
 15 43  1  0  0  0  0
 16 17  1  0  0  0  0
 16 44  1  0  0  0  0
 16 45  1  0  0  0  0
 17 20  1  6  0  0  0
 17 24  1  0  0  0  0
 18 46  1  0  0  0  0
 18 47  1  0  0  0  0
 18 48  1  0  0  0  0
 19 49  1  0  0  0  0
 19 50  1  0  0  0  0
 19 51  1  0  0  0  0
 20 21  1  0  0  0  0
 20 25  2  0  0  0  0
 21 26  1  0  0  0  0
 21 52  1  0  0  0  0
 21 53  1  0  0  0  0
 23 54  1  0  0  0  0
 24 55  1  0  0  0  0
 26 56  1  0  0  0  0
M  END
$$$$
