HFA
 OpenBabel04051917393D

 21 21  0  0  1  0  0  0  0  0999 V2000
   -0.9724   29.4363   -8.2966 C   0  0  0  0  0  0  0  0  0  0  0  0
   -0.3179   30.4146   -7.8257 O   0  0  0  0  0  0  0  0  0  0  0  0
   -0.5579   28.2808   -8.6080 O   0  0  0  0  0  0  0  0  0  0  0  0
   -2.4886   29.6800   -8.5748 C   0  0  1  0  0  0  0  0  0  0  0  0
   -3.2066   30.0572   -7.3715 O   0  0  0  0  0  0  0  0  0  0  0  0
   -2.6816   30.7690   -9.6303 C   0  0  0  0  0  0  0  0  0  0  0  0
   -2.4615   30.2416  -11.0264 C   0  0  0  0  0  0  0  0  0  0  0  0
   -1.2155   30.4348  -11.6325 C   0  0  0  0  0  0  0  0  0  0  0  0
   -0.9474   29.8926  -12.8859 C   0  0  0  0  0  0  0  0  0  0  0  0
   -1.9158   29.1366  -13.5409 C   0  0  0  0  0  0  0  0  0  0  0  0
   -3.1565   28.9229  -12.9403 C   0  0  0  0  0  0  0  0  0  0  0  0
   -3.4350   29.4728  -11.6885 C   0  0  0  0  0  0  0  0  0  0  0  0
   -2.9343   28.7351   -8.9060 H   0  0  0  0  0  0  0  0  0  0  0  0
   -4.1387   30.1068   -7.6270 H   0  0  0  0  0  0  0  0  0  0  0  0
   -2.0215   31.6276   -9.4434 H   0  0  0  0  0  0  0  0  0  0  0  0
   -3.6965   31.1888   -9.5712 H   0  0  0  0  0  0  0  0  0  0  0  0
   -0.4321   30.9676  -11.0935 H   0  0  0  0  0  0  0  0  0  0  0  0
    0.0357   30.0306  -13.3312 H   0  0  0  0  0  0  0  0  0  0  0  0
   -1.6915   28.6907  -14.5055 H   0  0  0  0  0  0  0  0  0  0  0  0
   -3.8958   28.2992  -13.4344 H   0  0  0  0  0  0  0  0  0  0  0  0
   -4.3885   29.2739  -11.2140 H   0  0  0  0  0  0  0  0  0  0  0  0
  1  2  2  0  0  0  0
  1  3  1  0  0  0  0
  1  4  1  0  0  0  0
  4  5  1  0  0  0  0
  4  6  1  0  0  0  0
  4 13  1  6  0  0  0
  5 14  1  0  0  0  0
  6  7  1  0  0  0  0
  6 15  1  0  0  0  0
  6 16  1  0  0  0  0
  7  8  2  0  0  0  0
  7 12  1  0  0  0  0
  8  9  1  0  0  0  0
  8 17  1  0  0  0  0
  9 10  2  0  0  0  0
  9 18  1  0  0  0  0
 10 11  1  0  0  0  0
 10 19  1  0  0  0  0
 11 12  2  0  0  0  0
 11 20  1  0  0  0  0
 12 21  1  0  0  0  0
M  END
$$$$
