HI6
 OpenBabel04051920033D

 33 34  0  0  0  0  0  0  0  0999 V2000
   38.1925   18.7278    9.4703 O   0  0  0  0  0  0  0  0  0  0  0  0
   38.2045   19.7748   10.0556 C   0  0  0  0  0  0  0  0  0  0  0  0
   39.1911   20.0820   10.9589 N   0  0  0  0  0  0  0  0  0  0  0  0
   37.1458   20.8192    9.8705 C   0  0  0  0  0  0  0  0  0  0  0  0
   37.1485   21.9664   10.6538 C   0  0  0  0  0  0  0  0  0  0  0  0
   36.1637   22.9193   10.5017 C   0  0  0  0  0  0  0  0  0  0  0  0
   35.1876   22.7468    9.5919 N   0  3  0  0  0  0  0  0  0  0  0  0
   35.1601   21.6327    8.8183 C   0  0  0  0  0  0  0  0  0  0  0  0
   36.1321   20.6456    8.9377 C   0  0  0  0  0  0  0  0  0  0  0  0
   34.1210   23.7559    9.4517 C   0  0  0  0  0  0  0  0  0  0  0  0
   32.9569   23.0409    9.0957 O   0  0  0  0  0  0  0  0  0  0  0  0
   31.7900   23.8118    9.0763 C   0  0  0  0  0  0  0  0  0  0  0  0
   30.9337   23.3108   10.1570 N   0  3  0  0  0  0  0  0  0  0  0  0
   30.1901   22.2016    9.9615 C   0  0  0  0  0  0  0  0  0  0  0  0
   29.3958   21.7136   10.9906 C   0  0  0  0  0  0  0  0  0  0  0  0
   29.3691   22.3703   12.2157 C   0  0  0  0  0  0  0  0  0  0  0  0
   30.1423   23.5053   12.3946 C   0  0  0  0  0  0  0  0  0  0  0  0
   30.9230   23.9524   11.3456 C   0  0  0  0  0  0  0  0  0  0  0  0
   39.2527   20.9436   11.4591 H   0  0  0  0  0  0  0  0  0  0  0  0
   39.9140   19.3927   11.1336 H   0  0  0  0  0  0  0  0  0  0  0  0
   37.9081   22.1476   11.3994 H   0  0  0  0  0  0  0  0  0  0  0  0
   36.1581   23.8225   11.1106 H   0  0  0  0  0  0  0  0  0  0  0  0
   34.3385   21.5160    8.1074 H   0  0  0  0  0  0  0  0  0  0  0  0
   36.0901   19.7646    8.3015 H   0  0  0  0  0  0  0  0  0  0  0  0
   34.4123   24.4688    8.6726 H   0  0  0  0  0  0  0  0  0  0  0  0
   33.9938   24.2839   10.4070 H   0  0  0  0  0  0  0  0  0  0  0  0
   31.2743   23.6712    8.1246 H   0  0  0  0  0  0  0  0  0  0  0  0
   31.9946   24.8703    9.2355 H   0  0  0  0  0  0  0  0  0  0  0  0
   30.2273   21.7048    8.9915 H   0  0  0  0  0  0  0  0  0  0  0  0
   28.7924   20.8221   10.8332 H   0  0  0  0  0  0  0  0  0  0  0  0
   28.7456   21.9978   13.0246 H   0  0  0  0  0  0  0  0  0  0  0  0
   30.1328   24.0414   13.3416 H   0  0  0  0  0  0  0  0  0  0  0  0
   31.5453   24.8345   11.4563 H   0  0  0  0  0  0  0  0  0  0  0  0
  1  2  2  0  0  0  0
  2  3  1  0  0  0  0
  2  4  1  0  0  0  0
  3 19  1  0  0  0  0
  3 20  1  0  0  0  0
  4  5  2  0  0  0  0
  4  9  1  0  0  0  0
  5  6  1  0  0  0  0
  5 21  1  0  0  0  0
  6  7  2  0  0  0  0
  6 22  1  0  0  0  0
  7  8  1  0  0  0  0
  7 10  1  0  0  0  0
  8  9  2  0  0  0  0
  8 23  1  0  0  0  0
  9 24  1  0  0  0  0
 10 11  1  0  0  0  0
 10 25  1  0  0  0  0
 10 26  1  0  0  0  0
 11 12  1  0  0  0  0
 12 13  1  0  0  0  0
 12 27  1  0  0  0  0
 12 28  1  0  0  0  0
 13 14  2  0  0  0  0
 13 18  1  0  0  0  0
 14 15  1  0  0  0  0
 14 29  1  0  0  0  0
 15 16  2  0  0  0  0
 15 30  1  0  0  0  0
 16 17  1  0  0  0  0
 16 31  1  0  0  0  0
 17 18  2  0  0  0  0
 17 32  1  0  0  0  0
 18 33  1  0  0  0  0
M  CHG  2   7   1  13   1
M  END
$$$$
