HQ6
 OpenBabel04051919543D

 35 35  0  0  1  0  0  0  0  0999 V2000
    5.7988  -10.0106    5.4977 O   0  0  0  0  0  0  0  0  0  0  0  0
    6.9720   -9.9213    5.9441 C   0  0  0  0  0  0  0  0  0  0  0  0
    7.2702   -9.3061    7.2841 C   0  0  0  0  0  0  0  0  0  0  0  0
    8.0425  -10.5071    5.2825 N   0  0  0  0  0  0  0  0  0  0  0  0
    7.9847  -11.3351    4.0400 C   0  0  1  0  0  0  0  0  0  0  0  0
    7.4143  -12.7695    4.2532 C   0  0  2  0  0  0  0  0  0  0  0  0
    7.7091  -13.6516    3.1395 O   0  0  0  0  0  0  0  0  0  0  0  0
    7.4976  -10.4897    2.8446 C   0  0  1  0  0  0  0  0  0  0  0  0
    8.6917  -10.1639    2.1091 O   0  0  0  0  0  0  0  0  0  0  0  0
    6.4816  -11.0982    1.8767 C   0  0  2  0  0  0  0  0  0  0  0  0
    6.3011  -10.1778    0.7987 O   0  0  0  0  0  0  0  0  0  0  0  0
    5.1336  -11.4049    2.5398 C   0  0  1  0  0  0  0  0  0  0  0  0
    3.9778  -11.5294    1.5402 C   0  0  0  0  0  0  0  0  0  0  0  0
    4.1711  -12.6773    0.7085 O   0  0  0  0  0  0  0  0  0  0  0  0
    5.2356  -12.7864    3.1461 N   0  3  0  0  0  0  0  0  0  0  0  0
    5.9147  -12.8681    4.4540 C   0  0  0  0  0  0  0  0  0  0  0  0
    8.3413   -9.3379    7.5125 H   0  0  0  0  0  0  0  0  0  0  0  0
    6.7485   -9.8437    8.0899 H   0  0  0  0  0  0  0  0  0  0  0  0
    6.9432   -8.2616    7.3219 H   0  0  0  0  0  0  0  0  0  0  0  0
    8.9784  -10.1379    5.5048 H   0  0  0  0  0  0  0  0  0  0  0  0
    9.0465  -11.5504    3.8353 H   0  0  0  0  0  0  0  0  0  0  0  0
    7.8790  -13.2070    5.1410 H   0  0  0  0  0  0  0  0  0  0  0  0
    8.6912  -13.7513    3.0637 H   0  0  0  0  0  0  0  0  0  0  0  0
    7.0975   -9.5448    3.2219 H   0  0  0  0  0  0  0  0  0  0  0  0
    8.4586   -9.5803    1.3579 H   0  0  0  0  0  0  0  0  0  0  0  0
    6.9034  -12.0034    1.4402 H   0  0  0  0  0  0  0  0  0  0  0  0
    7.1389  -10.1161    0.2928 H   0  0  0  0  0  0  0  0  0  0  0  0
    4.8720  -10.6928    3.3287 H   0  0  0  0  0  0  0  0  0  0  0  0
    3.9156  -10.6436    0.9023 H   0  0  0  0  0  0  0  0  0  0  0  0
    3.0207  -11.6468    2.0619 H   0  0  0  0  0  0  0  0  0  0  0  0
    4.1518  -13.4997    1.2221 H   0  0  0  0  0  0  0  0  0  0  0  0
    4.2930  -13.1806    3.2266 H   0  0  0  0  0  0  0  0  0  0  0  0
    5.5000  -12.0991    5.0904 H   0  0  0  0  0  0  0  0  0  0  0  0
    5.6210  -13.8447    4.8502 H   0  0  0  0  0  0  0  0  0  0  0  0
    5.7783  -13.3761    2.4842 H   0  0  0  0  0  0  0  0  0  0  0  0
  1  2  2  0  0  0  0
  2  3  1  0  0  0  0
  2  4  1  0  0  0  0
  3 17  1  0  0  0  0
  3 18  1  0  0  0  0
  3 19  1  0  0  0  0
  4  5  1  0  0  0  0
  4 20  1  0  0  0  0
  5  6  1  0  0  0  0
  5  8  1  0  0  0  0
  5 21  1  6  0  0  0
  6  7  1  0  0  0  0
  6 16  1  0  0  0  0
  6 22  1  1  0  0  0
  7 23  1  0  0  0  0
  8  9  1  0  0  0  0
  8 10  1  0  0  0  0
  8 24  1  1  0  0  0
  9 25  1  0  0  0  0
 10 11  1  0  0  0  0
 10 12  1  0  0  0  0
 10 26  1  6  0  0  0
 11 27  1  0  0  0  0
 12 13  1  0  0  0  0
 12 15  1  0  0  0  0
 12 28  1  1  0  0  0
 13 14  1  0  0  0  0
 13 29  1  0  0  0  0
 13 30  1  0  0  0  0
 14 31  1  0  0  0  0
 15 16  1  0  0  0  0
 15 32  1  0  0  0  0
 15 35  1  0  0  0  0
 16 33  1  0  0  0  0
 16 34  1  0  0  0  0
M  CHG  1  15   1
M  END
$$$$
