HSW
 OpenBabel04051918343D

 10  9  0  0  0  0  0  0  0  0999 V2000
   -4.4569    1.4958   14.3497 O   0  0  0  0  0  0  0  0  0  0  0  0
   -4.3723    1.7609   15.7561 N   0  3  0  0  0  0  0  0  0  0  0  0
   -5.5461    0.9393   16.6086 S   0  0  0  0  0  0  0  0  0  0  0  0
   -6.8619    1.3820   16.2111 O   0  0  0  0  0  0  0  0  0  0  0  0
   -5.1642    0.9408   18.0211 O   0  0  0  0  0  0  0  0  0  0  0  0
   -5.2972   -0.6037   16.0440 N   0  0  0  0  0  0  0  0  0  0  0  0
   -3.8085    2.0496   13.8779 H   0  0  0  0  0  0  0  0  0  0  0  0
   -3.7946    2.4998   16.1690 H   0  0  0  0  0  0  0  0  0  0  0  0
   -5.8800   -1.3385   16.4194 H   0  0  0  0  0  0  0  0  0  0  0  0
   -4.5684   -0.8037   15.3672 H   0  0  0  0  0  0  0  0  0  0  0  0
  1  2  1  0  0  0  0
  1  7  1  0  0  0  0
  2  3  1  0  0  0  0
  2  8  1  0  0  0  0
  3  4  2  0  0  0  0
  3  5  2  0  0  0  0
  3  6  1  0  0  0  0
  6  9  1  0  0  0  0
  6 10  1  0  0  0  0
M  CHG  1   2   1
M  END
$$$$
