HV1
 OpenBabel04051919293D

 91 94  0  0  1  0  0  0  0  0999 V2000
   13.6811   24.3467    5.0085 C   0  0  0  0  0  0  0  0  0  0  0  0
   13.7848   23.8046    6.4135 C   0  0  0  0  0  0  0  0  0  0  0  0
   11.3381   23.6680    4.4132 N   0  0  0  0  0  0  0  0  0  0  0  0
   10.7554   24.7465    5.0623 N   0  0  0  0  0  0  0  0  0  0  0  0
    8.0579   25.8486    6.3088 N   0  0  0  0  0  0  0  0  0  0  0  0
   13.1616   22.7857    3.3830 O   0  0  0  0  0  0  0  0  0  0  0  0
   12.7101   23.5370    4.2465 C   0  0  0  0  0  0  0  0  0  0  0  0
   10.0537   24.5090    6.2586 C   0  0  0  0  0  0  0  0  0  0  0  0
    5.3030   27.4724    5.9106 C   0  0  0  0  0  0  0  0  0  0  0  0
    6.2352   26.5788    5.2862 O   0  0  0  0  0  0  0  0  0  0  0  0
    7.5656   26.8192    5.4880 C   0  0  0  0  0  0  0  0  0  0  0  0
    8.2108   27.7195    4.9990 O   0  0  0  0  0  0  0  0  0  0  0  0
    9.4164   25.8126    6.8168 C   0  0  2  0  0  0  0  0  0  0  0  0
    9.3885   25.9344    8.3533 C   0  0  0  0  0  0  0  0  0  0  0  0
    8.5587   24.8638    9.0808 C   0  0  0  0  0  0  0  0  0  0  0  0
   10.8123   25.8852    8.8908 C   0  0  0  0  0  0  0  0  0  0  0  0
    8.7715   27.2869    8.7588 C   0  0  0  0  0  0  0  0  0  0  0  0
    9.9387   23.4222    6.7264 O   0  0  0  0  0  0  0  0  0  0  0  0
   10.6514   23.1442    3.2654 C   0  0  0  0  0  0  0  0  0  0  0  0
    9.4393   23.8285    2.7576 C   0  0  0  0  0  0  0  0  0  0  0  0
    8.1462   23.4019    3.0972 C   0  0  0  0  0  0  0  0  0  0  0  0
    7.0417   24.0568    2.5540 C   0  0  0  0  0  0  0  0  0  0  0  0
    7.2674   25.1263    1.6690 C   0  0  0  0  0  0  0  0  0  0  0  0
    5.8582   26.0882    0.8578 Br  0  0  0  0  0  0  0  0  0  0  0  0
    8.5558   25.5255    1.3412 C   0  0  0  0  0  0  0  0  0  0  0  0
    9.6475   24.8836    1.8758 C   0  0  0  0  0  0  0  0  0  0  0  0
   14.9376   22.7985    6.6110 C   0  0  1  0  0  0  0  0  0  0  0  0
   16.0949   23.4576    6.0633 O   0  0  0  0  0  0  0  0  0  0  0  0
   15.0882   22.6646    8.1413 C   0  0  0  0  0  0  0  0  0  0  0  0
   16.1582   21.7215    8.6297 C   0  0  0  0  0  0  0  0  0  0  0  0
   15.7684   20.6010    9.3870 C   0  0  0  0  0  0  0  0  0  0  0  0
   16.7364   19.7136    9.8423 C   0  0  0  0  0  0  0  0  0  0  0  0
   18.0821   19.9508    9.5422 C   0  0  0  0  0  0  0  0  0  0  0  0
   18.4847   21.0639    8.7942 C   0  0  0  0  0  0  0  0  0  0  0  0
   17.5173   21.9550    8.3419 C   0  0  0  0  0  0  0  0  0  0  0  0
   14.7253   21.3177    6.0590 C   0  0  0  0  0  0  0  0  0  0  0  0
   13.7882   20.5885    6.3130 O   0  0  0  0  0  0  0  0  0  0  0  0
   15.8799   20.8933    5.4129 N   0  0  0  0  0  0  0  0  0  0  0  0
   16.0543   19.5141    5.0296 C   0  0  1  0  0  0  0  0  0  0  0  0
   15.8588   19.1717    3.5565 C   0  0  0  0  0  0  0  0  0  0  0  0
   14.9046   19.6462    2.6263 C   0  0  0  0  0  0  0  0  0  0  0  0
   14.9202   19.1369    1.3007 C   0  0  0  0  0  0  0  0  0  0  0  0
   15.8801   18.1447    0.9367 C   0  0  0  0  0  0  0  0  0  0  0  0
   16.8188   17.6500    1.8932 C   0  0  0  0  0  0  0  0  0  0  0  0
   16.7982   18.1653    3.1986 C   0  0  0  0  0  0  0  0  0  0  0  0
   17.6861   17.8016    4.3987 C   0  0  0  0  0  0  0  0  0  0  0  0
   17.4974   19.0069    5.3474 C   0  0  1  0  0  0  0  0  0  0  0  0
   18.5357   19.9582    5.0122 O   0  0  0  0  0  0  0  0  0  0  0  0
   14.6290   24.2415    4.4642 H   0  0  0  0  0  0  0  0  0  0  0  0
   13.3970   25.4015    4.9780 H   0  0  0  0  0  0  0  0  0  0  0  0
   12.8392   23.3593    6.7210 H   0  0  0  0  0  0  0  0  0  0  0  0
   13.9809   24.6774    7.0601 H   0  0  0  0  0  0  0  0  0  0  0  0
   10.7900   25.6649    4.6393 H   0  0  0  0  0  0  0  0  0  0  0  0
    7.4042   25.1641    6.6466 H   0  0  0  0  0  0  0  0  0  0  0  0
    4.2759   27.1692    5.6474 H   0  0  0  0  0  0  0  0  0  0  0  0
    5.4574   28.5007    5.5756 H   0  0  0  0  0  0  0  0  0  0  0  0
    5.3996   27.4125    7.0008 H   0  0  0  0  0  0  0  0  0  0  0  0
   10.0115   26.6292    6.3769 H   0  0  0  0  0  0  0  0  0  0  0  0
    8.5639   25.0515   10.1657 H   0  0  0  0  0  0  0  0  0  0  0  0
    8.9629   23.8625    8.9160 H   0  0  0  0  0  0  0  0  0  0  0  0
    7.5140   24.8819    8.7517 H   0  0  0  0  0  0  0  0  0  0  0  0
   11.4303   26.6332    8.3853 H   0  0  0  0  0  0  0  0  0  0  0  0
   11.2459   24.8946    8.7275 H   0  0  0  0  0  0  0  0  0  0  0  0
   10.8135   26.0955    9.9657 H   0  0  0  0  0  0  0  0  0  0  0  0
    7.7377   27.3691    8.4018 H   0  0  0  0  0  0  0  0  0  0  0  0
    9.3505   28.1207    8.3487 H   0  0  0  0  0  0  0  0  0  0  0  0
    8.7521   27.3868    9.8528 H   0  0  0  0  0  0  0  0  0  0  0  0
   10.4378   22.0925    3.4321 H   0  0  0  0  0  0  0  0  0  0  0  0
   11.3730   23.2255    2.4496 H   0  0  0  0  0  0  0  0  0  0  0  0
    8.0216   22.5634    3.7825 H   0  0  0  0  0  0  0  0  0  0  0  0
    6.0391   23.7358    2.8220 H   0  0  0  0  0  0  0  0  0  0  0  0
    8.6978   26.3523    0.6573 H   0  0  0  0  0  0  0  0  0  0  0  0
   10.6635   25.1881    1.6176 H   0  0  0  0  0  0  0  0  0  0  0  0
   16.8685   22.8932    6.1567 H   0  0  0  0  0  0  0  0  0  0  0  0
   14.1223   22.3301    8.5481 H   0  0  0  0  0  0  0  0  0  0  0  0
   15.3034   23.6577    8.5545 H   0  0  0  0  0  0  0  0  0  0  0  0
   14.7153   20.4183    9.6156 H   0  0  0  0  0  0  0  0  0  0  0  0
   16.4562   18.8394   10.4290 H   0  0  0  0  0  0  0  0  0  0  0  0
   18.8307   19.2516    9.9038 H   0  0  0  0  0  0  0  0  0  0  0  0
   19.5413   21.2277    8.5792 H   0  0  0  0  0  0  0  0  0  0  0  0
   17.8238   22.8306    7.7753 H   0  0  0  0  0  0  0  0  0  0  0  0
   16.5865   21.5610    5.1895 H   0  0  0  0  0  0  0  0  0  0  0  0
   15.3598   18.8826    5.5971 H   0  0  0  0  0  0  0  0  0  0  0  0
   14.1610   20.4159    2.9164 H   0  0  0  0  0  0  0  0  0  0  0  0
   14.1989   19.5040    0.5521 H   0  0  0  0  0  0  0  0  0  0  0  0
   15.8898   17.7561   -0.0949 H   0  0  0  0  0  0  0  0  0  0  0  0
   17.5569   16.8881    1.5997 H   0  0  0  0  0  0  0  0  0  0  0  0
   18.7424   17.6979    4.1174 H   0  0  0  0  0  0  0  0  0  0  0  0
   17.3478   16.8832    4.8959 H   0  0  0  0  0  0  0  0  0  0  0  0
   17.6031   18.7603    6.4203 H   0  0  0  0  0  0  0  0  0  0  0  0
   18.4635   20.7318    5.5871 H   0  0  0  0  0  0  0  0  0  0  0  0
  1  2  1  0  0  0  0
  1  7  1  0  0  0  0
  1 49  1  0  0  0  0
  1 50  1  0  0  0  0
  2 51  1  0  0  0  0
  2 52  1  0  0  0  0
  3  4  1  0  0  0  0
  3  7  1  0  0  0  0
  3 19  1  0  0  0  0
  4  8  1  0  0  0  0
  4 53  1  0  0  0  0
  5 11  1  0  0  0  0
  5 13  1  0  0  0  0
  5 54  1  0  0  0  0
  6  7  2  0  0  0  0
  8 13  1  0  0  0  0
  8 18  2  0  0  0  0
  9 10  1  0  0  0  0
  9 55  1  0  0  0  0
  9 56  1  0  0  0  0
  9 57  1  0  0  0  0
 10 11  1  0  0  0  0
 11 12  2  0  0  0  0
 13 14  1  0  0  0  0
 13 58  1  6  0  0  0
 14 15  1  0  0  0  0
 14 16  1  0  0  0  0
 14 17  1  0  0  0  0
 15 59  1  0  0  0  0
 15 60  1  0  0  0  0
 15 61  1  0  0  0  0
 16 62  1  0  0  0  0
 16 63  1  0  0  0  0
 16 64  1  0  0  0  0
 17 65  1  0  0  0  0
 17 66  1  0  0  0  0
 17 67  1  0  0  0  0
 19 20  1  0  0  0  0
 19 68  1  0  0  0  0
 19 69  1  0  0  0  0
 20 21  2  0  0  0  0
 20 26  1  0  0  0  0
 21 22  1  0  0  0  0
 21 70  1  0  0  0  0
 22 23  2  0  0  0  0
 22 71  1  0  0  0  0
 23 24  1  0  0  0  0
 23 25  1  0  0  0  0
 25 26  2  0  0  0  0
 25 72  1  0  0  0  0
 26 73  1  0  0  0  0
 27  2  1  6  0  0  0
 27 28  1  0  0  0  0
 27 29  1  0  0  0  0
 27 36  1  0  0  0  0
 28 74  1  0  0  0  0
 29 30  1  0  0  0  0
 29 75  1  0  0  0  0
 29 76  1  0  0  0  0
 30 31  2  0  0  0  0
 30 35  1  0  0  0  0
 31 32  1  0  0  0  0
 31 77  1  0  0  0  0
 32 33  2  0  0  0  0
 32 78  1  0  0  0  0
 33 34  1  0  0  0  0
 33 79  1  0  0  0  0
 34 35  2  0  0  0  0
 34 80  1  0  0  0  0
 35 81  1  0  0  0  0
 36 37  2  0  0  0  0
 36 38  1  0  0  0  0
 38 39  1  0  0  0  0
 38 82  1  0  0  0  0
 39 40  1  0  0  0  0
 39 47  1  0  0  0  0
 39 83  1  1  0  0  0
 40 41  2  0  0  0  0
 40 45  1  0  0  0  0
 41 42  1  0  0  0  0
 41 84  1  0  0  0  0
 42 43  2  0  0  0  0
 42 85  1  0  0  0  0
 43 44  1  0  0  0  0
 43 86  1  0  0  0  0
 44 45  2  0  0  0  0
 44 87  1  0  0  0  0
 45 46  1  0  0  0  0
 46 47  1  0  0  0  0
 46 88  1  0  0  0  0
 46 89  1  0  0  0  0
 47 48  1  0  0  0  0
 47 90  1  1  0  0  0
 48 91  1  0  0  0  0
M  END
$$$$
