I7A
 OpenBabel04051918473D

 22 22  0  0  0  0  0  0  0  0999 V2000
   -3.9005    2.1614   11.8914 S   0  0  0  0  0  0  0  0  0  0  0  0
   -4.5213    2.9589   10.8777 O   0  0  0  0  0  0  0  0  0  0  0  0
   -3.8785    0.7071   11.8569 O   0  0  0  0  0  0  0  0  0  0  0  0
   -2.3182    2.6339   12.0410 N   0  0  0  0  0  0  0  0  0  0  0  0
   -5.9657    0.8466   16.7903 S   0  0  0  0  0  0  0  0  0  0  0  0
   -5.1998    1.1064   17.9847 O   0  0  0  0  0  0  0  0  0  0  0  0
   -7.4181    0.7294   16.7738 O   0  0  0  0  0  0  0  0  0  0  0  0
   -5.3947   -0.5898   16.1757 N   0  0  0  0  0  0  0  0  0  0  0  0
   -4.5748    2.6484   13.4518 C   0  0  0  0  0  0  0  0  0  0  0  0
   -4.9233    1.6765   14.3889 C   0  0  0  0  0  0  0  0  0  0  0  0
   -5.5255    2.0628   15.5876 C   0  0  0  0  0  0  0  0  0  0  0  0
   -5.7795    3.4122   15.8588 C   0  0  0  0  0  0  0  0  0  0  0  0
   -5.4272    4.3858   14.9039 C   0  0  0  0  0  0  0  0  0  0  0  0
   -4.8300    4.0117   13.6964 C   0  0  0  0  0  0  0  0  0  0  0  0
   -6.5298    3.9105   17.3423 Cl  0  0  0  0  0  0  0  0  0  0  0  0
   -5.7164    6.0683   15.1894 Cl  0  0  0  0  0  0  0  0  0  0  0  0
   -2.0971    3.6214   11.9803 H   0  0  0  0  0  0  0  0  0  0  0  0
   -1.6022    1.9162   11.9636 H   0  0  0  0  0  0  0  0  0  0  0  0
   -4.3975   -0.7775   16.2169 H   0  0  0  0  0  0  0  0  0  0  0  0
   -6.0724   -1.3264   15.9993 H   0  0  0  0  0  0  0  0  0  0  0  0
   -4.7347    0.6271   14.1678 H   0  0  0  0  0  0  0  0  0  0  0  0
   -4.5768    4.7691   12.9587 H   0  0  0  0  0  0  0  0  0  0  0  0
  1  2  2  0  0  0  0
  1  3  2  0  0  0  0
  1  4  1  0  0  0  0
  1  9  1  0  0  0  0
  4 17  1  0  0  0  0
  4 18  1  0  0  0  0
  5  6  2  0  0  0  0
  5  7  2  0  0  0  0
  5  8  1  0  0  0  0
  5 11  1  0  0  0  0
  8 19  1  0  0  0  0
  8 20  1  0  0  0  0
  9 10  2  0  0  0  0
  9 14  1  0  0  0  0
 10 11  1  0  0  0  0
 10 21  1  0  0  0  0
 11 12  2  0  0  0  0
 12 13  1  0  0  0  0
 12 15  1  0  0  0  0
 13 14  2  0  0  0  0
 13 16  1  0  0  0  0
 14 22  1  0  0  0  0
M  END
$$$$
