I7B
 OpenBabel04051918473D

 24 24  0  0  0  0  0  0  0  0999 V2000
   -4.9889    1.9075   14.4259 C   0  0  0  0  0  0  0  0  0  0  0  0
   -4.6739    2.8849   13.4707 C   0  0  0  0  0  0  0  0  0  0  0  0
   -4.9903    4.2308   13.6850 C   0  0  0  0  0  0  0  0  0  0  0  0
   -5.5981    4.5726   14.9040 C   0  0  0  0  0  0  0  0  0  0  0  0
   -5.9146    3.5998   15.8697 C   0  0  0  0  0  0  0  0  0  0  0  0
   -5.6028    2.2588   15.6297 C   0  0  0  0  0  0  0  0  0  0  0  0
   -3.9719    2.3251   11.9364 S   0  0  0  0  0  0  0  0  0  0  0  0
   -2.3945    2.8342   12.0063 N   0  0  0  0  0  0  0  0  0  0  0  0
   -3.9365    0.8951   11.9479 O   0  0  0  0  0  0  0  0  0  0  0  0
   -4.5970    3.0579   10.8432 O   0  0  0  0  0  0  0  0  0  0  0  0
   -6.0273    1.0205   16.8209 S   0  0  0  0  0  0  0  0  0  0  0  0
   -5.4099   -0.4143   16.2460 N   0  0  0  0  0  0  0  0  0  0  0  0
   -5.2916    1.2866   18.0435 O   0  0  0  0  0  0  0  0  0  0  0  0
   -7.4626    0.8660   16.7738 O   0  0  0  0  0  0  0  0  0  0  0  0
   -4.6391    5.2392   12.8028 N   0  0  0  0  0  0  0  0  0  0  0  0
   -6.6801    4.1400   17.3172 Cl  0  0  0  0  0  0  0  0  0  0  0  0
   -4.7594    0.8769   14.1938 H   0  0  0  0  0  0  0  0  0  0  0  0
   -5.8396    5.6205   15.0949 H   0  0  0  0  0  0  0  0  0  0  0  0
   -1.8135    2.6187   11.2005 H   0  0  0  0  0  0  0  0  0  0  0  0
   -2.0476    3.3549   12.8019 H   0  0  0  0  0  0  0  0  0  0  0  0
   -5.5691   -1.2458   16.8107 H   0  0  0  0  0  0  0  0  0  0  0  0
   -4.9237   -0.4994   15.3681 H   0  0  0  0  0  0  0  0  0  0  0  0
   -4.2911    5.0109   11.8716 H   0  0  0  0  0  0  0  0  0  0  0  0
   -4.9406    6.1945   12.9491 H   0  0  0  0  0  0  0  0  0  0  0  0
  1  2  2  0  0  0  0
  1  6  1  0  0  0  0
  1 17  1  0  0  0  0
  2  3  1  0  0  0  0
  2  7  1  0  0  0  0
  3  4  2  0  0  0  0
  3 15  1  0  0  0  0
  4  5  1  0  0  0  0
  4 18  1  0  0  0  0
  5  6  2  0  0  0  0
  5 16  1  0  0  0  0
  6 11  1  0  0  0  0
  7  8  1  0  0  0  0
  7  9  2  0  0  0  0
  7 10  2  0  0  0  0
  8 19  1  0  0  0  0
  8 20  1  0  0  0  0
 11 12  1  0  0  0  0
 11 13  2  0  0  0  0
 11 14  2  0  0  0  0
 12 21  1  0  0  0  0
 12 22  1  0  0  0  0
 15 23  1  0  0  0  0
 15 24  1  0  0  0  0
M  END
$$$$
