ID8
 OpenBabel04051920313D

 32 33  0  0  0  0  0  0  0  0999 V2000
    6.0961    9.1343   24.5312 O   0  0  0  0  0  0  0  0  0  0  0  0
    7.2662    8.7916   24.1696 C   0  0  0  0  0  0  0  0  0  0  0  0
    7.9729    9.3776   23.2829 O   0  0  0  0  0  0  0  0  0  0  0  0
    7.8788    7.5906   24.8480 C   0  0  0  0  0  0  0  0  0  0  0  0
    7.5429    7.3100   26.1838 C   0  0  0  0  0  0  0  0  0  0  0  0
    8.0769    6.2233   26.8784 C   0  0  0  0  0  0  0  0  0  0  0  0
    8.9925    5.4008   26.2662 C   0  0  0  0  0  0  0  0  0  0  0  0
    9.3651    5.6838   24.9526 C   0  0  0  0  0  0  0  0  0  0  0  0
    8.8146    6.7492   24.2117 C   0  0  0  0  0  0  0  0  0  0  0  0
    9.0830    6.8643   22.8108 N   0  0  0  0  0  0  0  0  0  0  0  0
   10.2069    6.2724   22.1921 C   0  0  0  0  0  0  0  0  0  0  0  0
   10.2422    4.8752   21.9609 C   0  0  0  0  0  0  0  0  0  0  0  0
    8.9912    4.0502   22.1721 C   0  0  0  0  0  0  0  0  0  0  0  0
   11.3812    7.0320   22.0215 C   0  0  0  0  0  0  0  0  0  0  0  0
   12.5744    6.4158   21.6390 C   0  0  0  0  0  0  0  0  0  0  0  0
   12.6079    5.0387   21.4289 C   0  0  0  0  0  0  0  0  0  0  0  0
   11.4529    4.2548   21.5838 C   0  0  0  0  0  0  0  0  0  0  0  0
   11.5692    2.7711   21.3602 C   0  0  0  0  0  0  0  0  0  0  0  0
    6.8183    7.9744   26.6948 H   0  0  0  0  0  0  0  0  0  0  0  0
    7.7526    6.0464   27.8927 H   0  0  0  0  0  0  0  0  0  0  0  0
    9.4124    4.5540   26.7860 H   0  0  0  0  0  0  0  0  0  0  0  0
   10.1036    5.0188   24.5061 H   0  0  0  0  0  0  0  0  0  0  0  0
    8.8328    7.8129   22.4890 H   0  0  0  0  0  0  0  0  0  0  0  0
    8.1202    4.6409   22.4671 H   0  0  0  0  0  0  0  0  0  0  0  0
    9.1550    3.3097   22.9620 H   0  0  0  0  0  0  0  0  0  0  0  0
    8.7163    3.5412   21.2409 H   0  0  0  0  0  0  0  0  0  0  0  0
   11.3766    8.0973   22.2538 H   0  0  0  0  0  0  0  0  0  0  0  0
   13.4814    7.0063   21.5390 H   0  0  0  0  0  0  0  0  0  0  0  0
   13.5489    4.5697   21.1544 H   0  0  0  0  0  0  0  0  0  0  0  0
   10.6287    2.2401   21.5285 H   0  0  0  0  0  0  0  0  0  0  0  0
   12.3058    2.3416   22.0478 H   0  0  0  0  0  0  0  0  0  0  0  0
   11.8762    2.5755   20.3314 H   0  0  0  0  0  0  0  0  0  0  0  0
  1  2  2  0  0  0  0
  2  3  1  0  0  0  0
  2  4  1  0  0  0  0
  4  5  2  0  0  0  0
  4  9  1  0  0  0  0
  5  6  1  0  0  0  0
  5 19  1  0  0  0  0
  6  7  2  0  0  0  0
  6 20  1  0  0  0  0
  7  8  1  0  0  0  0
  7 21  1  0  0  0  0
  8  9  2  0  0  0  0
  8 22  1  0  0  0  0
  9 10  1  0  0  0  0
 10 11  1  0  0  0  0
 10 23  1  0  0  0  0
 11 12  2  0  0  0  0
 11 14  1  0  0  0  0
 12 13  1  0  0  0  0
 12 17  1  0  0  0  0
 13 24  1  0  0  0  0
 13 25  1  0  0  0  0
 13 26  1  0  0  0  0
 14 15  2  0  0  0  0
 14 27  1  0  0  0  0
 15 16  1  0  0  0  0
 15 28  1  0  0  0  0
 16 17  2  0  0  0  0
 16 29  1  0  0  0  0
 17 18  1  0  0  0  0
 18 30  1  0  0  0  0
 18 31  1  0  0  0  0
 18 32  1  0  0  0  0
M  END
$$$$
