IIA
 OpenBabel04051917263D

 61 65  0  0  1  0  0  0  0  0999 V2000
    2.3200    8.5442   25.9027 C   0  0  0  0  0  0  0  0  0  0  0  0
    3.4532    8.9315   25.0975 C   0  0  0  0  0  0  0  0  0  0  0  0
    4.0575    7.9941   24.1890 C   0  0  2  0  0  0  0  0  0  0  0  0
    3.5025    6.6818   24.1341 C   0  0  2  0  0  0  0  0  0  0  0  0
    2.3878    6.3027   24.9410 C   0  0  0  0  0  0  0  0  0  0  0  0
    1.7989    7.2370   25.8204 C   0  0  0  0  0  0  0  0  0  0  0  0
    5.1450    8.0220   23.2702 N   0  3  1  0  0  0  0  0  0  0  0  0
    5.2355    6.7618   22.7451 C   0  0  2  0  0  0  0  0  0  0  0  0
    4.2418    5.9385   23.1979 C   0  0  0  0  0  0  0  0  0  0  0  0
    6.3087    6.3202   21.9159 C   0  0  0  0  0  0  0  0  0  0  0  0
    5.8798    5.2894   21.1361 N   0  0  0  0  0  0  0  0  0  0  0  0
    6.8792    4.4245   20.6639 C   0  0  1  0  0  0  0  0  0  0  0  0
    6.2682    3.0595   20.4827 C   0  0  0  0  0  0  0  0  0  0  0  0
    7.2650    2.1065   19.8936 C   0  0  0  0  0  0  0  0  0  0  0  0
    7.7850    2.6855   18.5908 N   0  3  1  0  0  0  0  0  0  0  0  0
    8.4227    4.0457   18.7668 C   0  0  0  0  0  0  0  0  0  0  0  0
    7.4065    4.9749   19.3584 C   0  0  0  0  0  0  0  0  0  0  0  0
    8.6739    1.7115   17.8604 C   0  0  0  0  0  0  0  0  0  0  0  0
    9.3020    2.3509   16.6390 C   0  0  0  0  0  0  0  0  0  0  0  0
    7.8191    0.5434   17.4244 C   0  0  0  0  0  0  0  0  0  0  0  0
    6.1151    9.0592   22.7900 C   0  0  0  0  0  0  0  0  0  0  0  0
    7.3820    9.1595   23.5805 C   0  0  1  0  0  0  0  0  0  0  0  0
    8.3981    9.9050   23.1236 N   0  0  0  0  0  0  0  0  0  0  0  0
    9.4158    9.7099   24.0247 O   0  0  0  0  0  0  0  0  0  0  0  0
    9.0202    8.8436   25.0099 C   0  0  1  0  0  0  0  0  0  0  0  0
    7.6799    8.5582   24.8360 C   0  0  0  0  0  0  0  0  0  0  0  0
    9.9596    8.3082   25.9420 C   0  0  2  0  0  0  0  0  0  0  0  0
   11.6158    8.4472   25.5123 S   0  0  0  0  0  0  0  0  0  0  0  0
   12.0926    7.6471   26.8967 C   0  0  1  0  0  0  0  0  0  0  0  0
   11.0634    7.2275   27.7015 C   0  0  0  0  0  0  0  0  0  0  0  0
    9.7995    7.5931   27.1185 C   0  0  0  0  0  0  0  0  0  0  0  0
   13.7720    7.4054   27.1516 Cl  0  0  0  0  0  0  0  0  0  0  0  0
    7.4258    6.7068   21.9589 O   0  0  0  0  0  0  0  0  0  0  0  0
    1.8480    9.2767   26.5939 H   0  0  0  0  0  0  0  0  0  0  0  0
    3.8415    9.9494   25.1934 H   0  0  0  0  0  0  0  0  0  0  0  0
    1.9904    5.2735   24.8683 H   0  0  0  0  0  0  0  0  0  0  0  0
    0.9369    6.9303   26.4339 H   0  0  0  0  0  0  0  0  0  0  0  0
    4.1237    4.8890   22.9054 H   0  0  0  0  0  0  0  0  0  0  0  0
    4.8835    5.1703   20.9685 H   0  0  0  0  0  0  0  0  0  0  0  0
    7.6781    4.3959   21.4188 H   0  0  0  0  0  0  0  0  0  0  0  0
    5.4000    3.1510   19.8177 H   0  0  0  0  0  0  0  0  0  0  0  0
    5.9244    2.6775   21.4487 H   0  0  0  0  0  0  0  0  0  0  0  0
    6.7676    1.1569   19.6871 H   0  0  0  0  0  0  0  0  0  0  0  0
    8.1115    1.9345   20.5616 H   0  0  0  0  0  0  0  0  0  0  0  0
    8.7182    4.4187   17.7828 H   0  0  0  0  0  0  0  0  0  0  0  0
    9.3042    3.9312   19.4009 H   0  0  0  0  0  0  0  0  0  0  0  0
    7.8715    5.9521   19.5164 H   0  0  0  0  0  0  0  0  0  0  0  0
    6.5665    5.1000   18.6635 H   0  0  0  0  0  0  0  0  0  0  0  0
    9.4507    1.3889   18.5555 H   0  0  0  0  0  0  0  0  0  0  0  0
    9.9378    1.6200   16.1367 H   0  0  0  0  0  0  0  0  0  0  0  0
    9.9355    3.1937   16.9260 H   0  0  0  0  0  0  0  0  0  0  0  0
    8.5316    2.6986   15.9415 H   0  0  0  0  0  0  0  0  0  0  0  0
    8.4390   -0.1751   16.8924 H   0  0  0  0  0  0  0  0  0  0  0  0
    7.0092    0.8847   16.7705 H   0  0  0  0  0  0  0  0  0  0  0  0
    7.3875    0.0414   18.2890 H   0  0  0  0  0  0  0  0  0  0  0  0
    5.6099   10.0182   22.7550 H   0  0  0  0  0  0  0  0  0  0  0  0
    6.3912    8.7981   21.7347 H   0  0  0  0  0  0  0  0  0  0  0  0
    7.0287    7.9552   25.4601 H   0  0  0  0  0  0  0  0  0  0  0  0
   11.1906    6.6807   28.6301 H   0  0  0  0  0  0  0  0  0  0  0  0
    8.8388    7.3454   27.5527 H   0  0  0  0  0  0  0  0  0  0  0  0
    6.9641    2.8320   17.9884 H   0  0  0  0  0  0  0  0  0  0  0  0
  1  2  1  0  0  0  0
  1  6  1  0  0  0  0
  1 34  1  0  0  0  0
  2 35  1  0  0  0  0
  3  2  1  1  0  0  0
  3  4  1  0  0  0  0
  3  7  1  0  0  0  0
  4  5  1  1  0  0  0
  4  9  1  0  0  0  0
  5  6  1  0  0  0  0
  5 36  1  0  0  0  0
  6 37  1  0  0  0  0
  7  8  1  0  0  0  0
  7 21  1  6  0  0  0
  8  9  1  0  0  0  0
  8 10  1  1  0  0  0
  9 38  1  0  0  0  0
 10 11  1  0  0  0  0
 10 33  2  0  0  0  0
 11 12  1  0  0  0  0
 11 39  1  0  0  0  0
 12 13  1  0  0  0  0
 12 17  1  0  0  0  0
 12 40  1  1  0  0  0
 13 14  1  0  0  0  0
 13 41  1  0  0  0  0
 13 42  1  0  0  0  0
 14 15  1  0  0  0  0
 14 43  1  0  0  0  0
 14 44  1  0  0  0  0
 15 16  1  0  0  0  0
 15 18  1  0  0  0  0
 15 61  1  6  0  0  0
 16 17  1  0  0  0  0
 16 45  1  0  0  0  0
 16 46  1  0  0  0  0
 17 47  1  0  0  0  0
 17 48  1  0  0  0  0
 18 19  1  0  0  0  0
 18 20  1  0  0  0  0
 18 49  1  0  0  0  0
 19 50  1  0  0  0  0
 19 51  1  0  0  0  0
 19 52  1  0  0  0  0
 20 53  1  0  0  0  0
 20 54  1  0  0  0  0
 20 55  1  0  0  0  0
 21 56  1  0  0  0  0
 21 57  1  0  0  0  0
 22 21  1  1  0  0  0
 22 23  1  0  0  0  0
 22 26  1  0  0  0  0
 23 24  1  0  0  0  0
 25 24  1  6  0  0  0
 25 26  1  0  0  0  0
 25 27  1  0  0  0  0
 26 58  1  0  0  0  0
 27 28  1  6  0  0  0
 27 31  1  0  0  0  0
 28 29  1  0  0  0  0
 29 30  1  0  0  0  0
 29 32  1  6  0  0  0
 30 31  1  0  0  0  0
 30 59  1  0  0  0  0
 31 60  1  0  0  0  0
M  CHG  2   7   1  15   1
M  END
$$$$
