IMI
 OpenBabel04051918173D

 33 34  0  0  1  0  0  0  0  0999 V2000
   29.2951   14.3327   -9.8909 C   0  0  0  0  0  0  0  0  0  0  0  0
   28.0654   14.1445   -9.7390 O   0  0  0  0  0  0  0  0  0  0  0  0
   30.0892   13.9002  -10.7925 O   0  0  0  0  0  0  0  0  0  0  0  0
   29.9727   15.1947   -8.8097 C   0  0  0  0  0  0  0  0  0  0  0  0
   31.4091   14.7979   -8.4715 C   0  0  0  0  0  0  0  0  0  0  0  0
   31.4762   13.4464   -7.7722 C   0  0  0  0  0  0  0  0  0  0  0  0
   32.8379   13.2094   -7.1250 C   0  0  0  0  0  0  0  0  0  0  0  0
   32.8131   11.9000   -6.3418 C   0  0  2  0  0  0  0  0  0  0  0  0
   32.1716   12.0135   -4.6535 S   0  0  0  0  0  0  0  0  0  0  0  0
   32.8799   10.4226   -4.1806 C   0  0  0  0  0  0  0  0  0  0  0  0
   34.1821   10.2780   -4.9687 C   0  0  2  0  0  0  0  0  0  0  0  0
   35.3251   10.7235   -4.1438 N   0  0  0  0  0  0  0  0  0  0  0  0
   35.8137   11.8692   -4.6537 C   0  0  0  0  0  0  0  0  0  0  0  0
   36.7722   12.5509   -4.0571 N   0  0  0  0  0  0  0  0  0  0  0  0
   35.2449   12.2364   -5.8113 N   0  0  0  0  0  0  0  0  0  0  0  0
   34.1912   11.2666   -6.1754 C   0  0  2  0  0  0  0  0  0  0  0  0
   29.3659   15.1715   -7.9033 H   0  0  0  0  0  0  0  0  0  0  0  0
   29.9761   16.2316   -9.1737 H   0  0  0  0  0  0  0  0  0  0  0  0
   31.8457   15.5622   -7.8102 H   0  0  0  0  0  0  0  0  0  0  0  0
   32.0322   14.7728   -9.3736 H   0  0  0  0  0  0  0  0  0  0  0  0
   31.2816   12.6481   -8.4993 H   0  0  0  0  0  0  0  0  0  0  0  0
   30.6981   13.3847   -7.0055 H   0  0  0  0  0  0  0  0  0  0  0  0
   33.1152   14.0629   -6.4922 H   0  0  0  0  0  0  0  0  0  0  0  0
   33.5958   13.1386   -7.9157 H   0  0  0  0  0  0  0  0  0  0  0  0
   32.1695   11.1804   -6.8587 H   0  0  0  0  0  0  0  0  0  0  0  0
   32.1841    9.6168   -4.4309 H   0  0  0  0  0  0  0  0  0  0  0  0
   33.0743   10.4249   -3.1051 H   0  0  0  0  0  0  0  0  0  0  0  0
   34.3633    9.2363   -5.2679 H   0  0  0  0  0  0  0  0  0  0  0  0
   35.6493   10.3302   -3.2795 H   0  0  0  0  0  0  0  0  0  0  0  0
   37.1238   13.4067   -4.4662 H   0  0  0  0  0  0  0  0  0  0  0  0
   35.4535   13.1055   -6.2895 H   0  0  0  0  0  0  0  0  0  0  0  0
   34.5021   10.7802   -7.1063 H   0  0  0  0  0  0  0  0  0  0  0  0
   37.1692   12.2292   -3.1901 H   0  0  0  0  0  0  0  0  0  0  0  0
  1  4  1  0  0  0  0
  1  3  2  0  0  0  0
  1  2  1  0  0  0  0
  4  5  1  0  0  0  0
  4 17  1  0  0  0  0
  4 18  1  0  0  0  0
  5  6  1  0  0  0  0
  5 19  1  0  0  0  0
  5 20  1  0  0  0  0
  6  7  1  0  0  0  0
  6 21  1  0  0  0  0
  6 22  1  0  0  0  0
  7  8  1  0  0  0  0
  7 23  1  0  0  0  0
  7 24  1  0  0  0  0
  8 16  1  0  0  0  0
  8  9  1  0  0  0  0
  8 25  1  6  0  0  0
  9 10  1  0  0  0  0
 10 11  1  0  0  0  0
 10 26  1  0  0  0  0
 10 27  1  0  0  0  0
 11 16  1  0  0  0  0
 11 12  1  0  0  0  0
 11 28  1  6  0  0  0
 12 13  1  0  0  0  0
 12 29  1  0  0  0  0
 13 15  1  0  0  0  0
 13 14  2  0  0  0  0
 14 30  1  0  0  0  0
 14 33  1  0  0  0  0
 15 16  1  0  0  0  0
 15 31  1  0  0  0  0
 16 32  1  6  0  0  0
M  END
$$$$
