IN8
 OpenBabel04051919273D

 45 47  0  0  1  0  0  0  0  0999 V2000
   29.5131   45.7205   47.8244 C   0  0  0  0  0  0  0  0  0  0  0  0
   31.0178   47.5670   48.1474 C   0  0  0  0  0  0  0  0  0  0  0  0
   27.2356   44.9992   48.5265 C   0  0  0  0  0  0  0  0  0  0  0  0
   26.7279   44.1014   44.6592 C   0  0  0  0  0  0  0  0  0  0  0  0
   26.5833   45.0394   43.6508 C   0  0  0  0  0  0  0  0  0  0  0  0
   25.9087   46.2196   43.9021 C   0  0  0  0  0  0  0  0  0  0  0  0
   25.2779   46.4198   45.1157 C   0  0  0  0  0  0  0  0  0  0  0  0
   25.3786   45.4540   46.1013 C   0  0  0  0  0  0  0  0  0  0  0  0
   25.0449   41.1712   47.4686 C   0  0  0  0  0  0  0  0  0  0  0  0
   23.8965   39.2041   47.8453 C   0  0  0  0  0  0  0  0  0  0  0  0
   22.3074   39.0767   51.8131 C   0  0  0  0  0  0  0  0  0  0  0  0
   21.9635   40.1099   50.9554 C   0  0  0  0  0  0  0  0  0  0  0  0
   22.4617   40.1583   49.6696 C   0  0  0  0  0  0  0  0  0  0  0  0
   23.1595   38.0769   51.3496 C   0  0  0  0  0  0  0  0  0  0  0  0
   29.4209   47.2027   48.6836 S   0  0  0  0  0  0  0  0  0  0  0  0
   30.6296   45.5253   47.1810 N   0  0  0  0  0  0  0  0  0  0  0  0
   31.5005   46.5976   47.3874 N   0  0  0  0  0  0  0  0  0  0  0  0
   28.4445   44.7817   47.8638 N   0  0  0  0  0  0  0  0  0  0  0  0
   31.9061   48.9793   48.5636 S   0  0  0  0  0  0  0  0  0  0  0  0
   26.9213   45.9602   49.1816 O   0  0  0  0  0  0  0  0  0  0  0  0
   26.2231   43.8331   48.3669 C   0  0  0  0  0  0  0  0  0  0  0  0
   26.2186   43.2376   46.9552 C   0  0  2  0  0  0  0  0  0  0  0  0
   26.1211   44.2982   45.8928 C   0  0  0  0  0  0  0  0  0  0  0  0
   23.8557   40.5298   47.3104 O   0  0  0  0  0  0  0  0  0  0  0  0
   26.0173   40.7118   48.1054 O   0  0  0  0  0  0  0  0  0  0  0  0
   25.0892   42.3330   46.8045 N   0  0  0  0  0  0  0  0  0  0  0  0
   23.3425   39.1798   49.2266 C   0  0  0  0  0  0  0  0  0  0  0  0
   23.6803   38.1304   50.0727 C   0  0  0  0  0  0  0  0  0  0  0  0
   27.3041   43.2065   44.4732 H   0  0  0  0  0  0  0  0  0  0  0  0
   26.9966   44.8492   42.6727 H   0  0  0  0  0  0  0  0  0  0  0  0
   25.8734   46.9935   43.1482 H   0  0  0  0  0  0  0  0  0  0  0  0
   24.7042   47.3096   45.2938 H   0  0  0  0  0  0  0  0  0  0  0  0
   24.8696   45.6206   47.0421 H   0  0  0  0  0  0  0  0  0  0  0  0
   24.9265   38.8382   47.8583 H   0  0  0  0  0  0  0  0  0  0  0  0
   23.3013   38.5318   47.2164 H   0  0  0  0  0  0  0  0  0  0  0  0
   21.9226   39.0438   52.8131 H   0  0  0  0  0  0  0  0  0  0  0  0
   21.2927   40.8891   51.2971 H   0  0  0  0  0  0  0  0  0  0  0  0
   22.1732   40.9559   48.9980 H   0  0  0  0  0  0  0  0  0  0  0  0
   23.4222   37.2460   51.9967 H   0  0  0  0  0  0  0  0  0  0  0  0
   28.5909   43.9404   47.3349 H   0  0  0  0  0  0  0  0  0  0  0  0
   25.2054   44.2031   48.5899 H   0  0  0  0  0  0  0  0  0  0  0  0
   26.4254   43.0329   49.0875 H   0  0  0  0  0  0  0  0  0  0  0  0
   27.1496   42.6756   46.7841 H   0  0  0  0  0  0  0  0  0  0  0  0
   24.2987   42.6231   46.2675 H   0  0  0  0  0  0  0  0  0  0  0  0
   24.3486   37.3622   49.7124 H   0  0  0  0  0  0  0  0  0  0  0  0
  1 18  1  0  0  0  0
  1 16  2  0  0  0  0
  1 15  1  0  0  0  0
  2 19  1  0  0  0  0
  2 17  2  0  0  0  0
  2 15  1  0  0  0  0
  3 18  1  0  0  0  0
  3 20  2  0  0  0  0
  3 21  1  0  0  0  0
  4 23  1  0  0  0  0
  4  5  2  0  0  0  0
  4 29  1  0  0  0  0
  5  6  1  0  0  0  0
  5 30  1  0  0  0  0
  6  7  2  0  0  0  0
  6 31  1  0  0  0  0
  7  8  1  0  0  0  0
  7 32  1  0  0  0  0
  8 23  2  0  0  0  0
  8 33  1  0  0  0  0
  9 26  1  0  0  0  0
  9 24  1  0  0  0  0
  9 25  2  0  0  0  0
 10 24  1  0  0  0  0
 10 27  1  0  0  0  0
 10 34  1  0  0  0  0
 10 35  1  0  0  0  0
 11 14  1  0  0  0  0
 11 12  2  0  0  0  0
 11 36  1  0  0  0  0
 12 13  1  0  0  0  0
 12 37  1  0  0  0  0
 13 27  2  0  0  0  0
 13 38  1  0  0  0  0
 14 28  2  0  0  0  0
 14 39  1  0  0  0  0
 16 17  1  0  0  0  0
 18 40  1  0  0  0  0
 21 22  1  0  0  0  0
 21 41  1  0  0  0  0
 21 42  1  0  0  0  0
 22 26  1  0  0  0  0
 22 23  1  0  0  0  0
 22 43  1  6  0  0  0
 26 44  1  0  0  0  0
 27 28  1  0  0  0  0
 28 45  1  0  0  0  0
M  END
$$$$
