IUR
 OpenBabel04051920043D

 12 12  0  0  1  0  0  0  0  0999 V2000
   16.7036   16.1650   45.6455 N   0  0  0  0  0  0  0  0  0  0  0  0
   15.5212   16.6466   46.1957 C   0  0  0  0  0  0  0  0  0  0  0  0
   14.9065   17.5898   45.6320 O   0  0  0  0  0  0  0  0  0  0  0  0
   15.1139   16.1764   47.3969 N   0  0  0  0  0  0  0  0  0  0  0  0
   15.7063   15.1635   48.1789 C   0  0  0  0  0  0  0  0  0  0  0  0
   15.2191   14.7880   49.2224 O   0  0  0  0  0  0  0  0  0  0  0  0
   16.7982   14.4609   47.4504 C   0  0  1  0  0  0  0  0  0  0  0  0
   17.3249   15.1772   46.2593 C   0  0  0  0  0  0  0  0  0  0  0  0
   18.0097   13.1240   48.4735 I   0  0  0  0  0  0  0  0  0  0  0  0
   14.2871   16.6000   47.7778 H   0  0  0  0  0  0  0  0  0  0  0  0
   16.2171   13.6984   46.9201 H   0  0  0  0  0  0  0  0  0  0  0  0
   18.2120   14.7299   45.7678 H   0  0  0  0  0  0  0  0  0  0  0  0
  1  2  1  0  0  0  0
  1  8  2  0  0  0  0
  2  3  2  0  0  0  0
  2  4  1  0  0  0  0
  4  5  1  0  0  0  0
  4 10  1  0  0  0  0
  5  6  2  0  0  0  0
  5  7  1  0  0  0  0
  7  8  1  0  0  0  0
  7  9  1  0  0  0  0
  7 11  1  6  0  0  0
  8 12  1  0  0  0  0
M  END
$$$$
