JCL
 OpenBabel04051917313D

 28 28  0  0  0  0  0  0  0  0999 V2000
  -24.0124   -0.7612    6.6713 N   0  3  0  0  0  0  0  0  0  0  0  0
  -23.4981   -2.4875    5.2475 N   0  3  0  0  0  0  0  0  0  0  0  0
  -22.7493   -1.6611    4.4644 C   0  0  0  0  0  0  0  0  0  0  0  0
  -22.1180   -2.5049    3.1100 Cl  0  0  0  0  0  0  0  0  0  0  0  0
  -22.5857   -0.3669    4.7258 C   0  0  0  0  0  0  0  0  0  0  0  0
  -21.8363    0.6366    3.8780 C   0  0  0  0  0  0  0  0  0  0  0  0
  -24.1599   -2.0805    6.3525 C   0  0  0  0  0  0  0  0  0  0  0  0
  -23.2895    0.1535    5.9382 C   0  0  0  0  0  0  0  0  0  0  0  0
  -24.8466   -2.8383    7.0311 O   0  0  0  0  0  0  0  0  0  0  0  0
  -23.2449    1.3189    6.3079 O   0  0  0  0  0  0  0  0  0  0  0  0
  -20.3589    0.3259    3.5912 C   0  0  0  0  0  0  0  0  0  0  0  0
  -19.6349    1.6174    3.1475 C   0  0  0  0  0  0  0  0  0  0  0  0
  -19.3112    1.6628    1.6426 C   0  0  0  0  0  0  0  0  0  0  0  0
  -19.7893    2.8370    1.0213 O   0  0  0  0  0  0  0  0  0  0  0  0
  -18.7689    4.0792    0.6575 P   0  0  0  0  0  0  0  0  0  0  0  0
  -19.6256    5.2972    0.9574 O   0  0  0  0  0  0  0  0  0  0  0  0
  -17.5796    3.8937    1.5817 O   0  0  0  0  0  0  0  0  0  0  0  0
  -18.4466    3.8958   -0.8234 O   0  0  0  0  0  0  0  0  0  0  0  0
  -24.5077   -0.4069    7.4784 H   0  0  0  0  0  0  0  0  0  0  0  0
  -23.5918   -3.4611    4.9731 H   0  0  0  0  0  0  0  0  0  0  0  0
  -21.8837    1.6051    4.3774 H   0  0  0  0  0  0  0  0  0  0  0  0
  -22.3640    0.7513    2.9274 H   0  0  0  0  0  0  0  0  0  0  0  0
  -20.2700   -0.4497    2.8204 H   0  0  0  0  0  0  0  0  0  0  0  0
  -19.8779   -0.0893    4.4890 H   0  0  0  0  0  0  0  0  0  0  0  0
  -18.6904    1.6594    3.7034 H   0  0  0  0  0  0  0  0  0  0  0  0
  -20.2060    2.5023    3.4524 H   0  0  0  0  0  0  0  0  0  0  0  0
  -19.8204    0.8364    1.1403 H   0  0  0  0  0  0  0  0  0  0  0  0
  -18.2373    1.5204    1.4923 H   0  0  0  0  0  0  0  0  0  0  0  0
  1  7  1  0  0  0  0
  1  8  1  0  0  0  0
  1 19  1  0  0  0  0
  2  3  1  0  0  0  0
  2  7  1  0  0  0  0
  2 20  1  0  0  0  0
  3  4  1  0  0  0  0
  3  5  2  0  0  0  0
  5  6  1  0  0  0  0
  5  8  1  0  0  0  0
  6 11  1  0  0  0  0
  6 21  1  0  0  0  0
  6 22  1  0  0  0  0
  7  9  2  0  0  0  0
  8 10  2  0  0  0  0
 11 12  1  0  0  0  0
 11 23  1  0  0  0  0
 11 24  1  0  0  0  0
 12 13  1  0  0  0  0
 12 25  1  0  0  0  0
 12 26  1  0  0  0  0
 13 14  1  0  0  0  0
 13 27  1  0  0  0  0
 13 28  1  0  0  0  0
 14 15  1  0  0  0  0
 15 16  2  0  0  0  0
 15 17  1  0  0  0  0
 15 18  1  0  0  0  0
M  CHG  2   1   1   2   1
M  END
$$$$
