JNJ
 OpenBabel04051919193D

 62 67  0  0  0  0  0  0  0  0999 V2000
   43.9346   51.2129   24.4109 C   0  0  0  0  0  0  0  0  0  0  0  0
   43.3937   50.4589   23.3252 C   0  0  0  0  0  0  0  0  0  0  0  0
   42.4165   50.6724   22.3311 C   0  0  0  0  0  0  0  0  0  0  0  0
   44.2494   53.0649   25.8978 N   0  0  0  0  0  0  0  0  0  0  0  0
   44.0538   49.2334   23.3593 C   0  0  0  0  0  0  0  0  0  0  0  0
   41.7217   45.2084   18.7498 C   0  0  0  0  0  0  0  0  0  0  0  0
   42.9483   45.8607   18.6008 C   0  0  0  0  0  0  0  0  0  0  0  0
   43.2722   46.9216   19.4602 C   0  0  0  0  0  0  0  0  0  0  0  0
   42.4175   47.3323   20.4961 C   0  0  0  0  0  0  0  0  0  0  0  0
   41.1919   46.6474   20.6230 C   0  0  0  0  0  0  0  0  0  0  0  0
   40.8368   45.5984   19.7558 C   0  0  0  0  0  0  0  0  0  0  0  0
   40.5006   44.0629   16.8654 C   0  0  0  0  0  0  0  0  0  0  0  0
   41.3468   42.0963   17.0583 C   0  0  0  0  0  0  0  0  0  0  0  0
   41.9601   42.8613   18.0203 C   0  0  0  0  0  0  0  0  0  0  0  0
   40.8948   46.3635   14.5549 C   0  0  0  0  0  0  0  0  0  0  0  0
   43.5716   52.5868   24.8129 C   0  0  0  0  0  0  0  0  0  0  0  0
   46.0041   46.4210   26.4659 C   0  0  0  0  0  0  0  0  0  0  0  0
   45.1831   47.4458   25.9555 C   0  0  0  0  0  0  0  0  0  0  0  0
   47.0376   48.1361   24.4960 C   0  0  0  0  0  0  0  0  0  0  0  0
   45.8988   45.3669   27.4118 C   0  0  0  0  0  0  0  0  0  0  0  0
   44.8526   50.4955   25.0891 N   0  0  0  0  0  0  0  0  0  0  0  0
   44.9168   49.3119   24.4336 N   0  3  0  0  0  0  0  0  0  0  0  0
   42.1195   49.6487   21.4116 C   0  0  0  0  0  0  0  0  0  0  0  0
   42.7822   48.4111   21.4432 C   0  0  0  0  0  0  0  0  0  0  0  0
   43.7710   48.2152   22.4328 C   0  0  0  0  0  0  0  0  0  0  0  0
   44.4144   47.0416   22.5044 F   0  0  0  0  0  0  0  0  0  0  0  0
   44.4290   47.5664   19.2506 F   0  0  0  0  0  0  0  0  0  0  0  0
   41.4018   44.1112   17.9203 N   0  3  0  0  0  0  0  0  0  0  0  0
   40.4789   42.8583   16.3250 N   0  0  0  0  0  0  0  0  0  0  0  0
   39.6482   45.1928   16.3963 C   0  0  0  0  0  0  0  0  0  0  0  0
   40.3934   46.4441   15.9703 N   0  3  0  0  0  0  0  0  0  0  0  0
   39.5757   47.6784   16.2037 C   0  0  0  0  0  0  0  0  0  0  0  0
   42.7321   53.2565   24.2307 O   0  0  0  0  0  0  0  0  0  0  0  0
   45.7215   48.2793   24.9562 C   0  0  0  0  0  0  0  0  0  0  0  0
   47.8597   47.1251   25.0114 C   0  0  0  0  0  0  0  0  0  0  0  0
   47.2963   46.2990   25.9838 C   0  0  0  0  0  0  0  0  0  0  0  0
   47.9129   45.2606   26.6078 O   0  0  0  0  0  0  0  0  0  0  0  0
   47.0350   44.6721   27.5031 N   0  0  0  0  0  0  0  0  0  0  0  0
   44.7869   45.0927   28.1140 N   0  0  0  0  0  0  0  0  0  0  0  0
   41.8828   51.6216   22.2854 H   0  0  0  0  0  0  0  0  0  0  0  0
   44.0580   53.9974   26.2356 H   0  0  0  0  0  0  0  0  0  0  0  0
   44.9450   52.4820   26.3537 H   0  0  0  0  0  0  0  0  0  0  0  0
   43.6671   45.5718   17.8370 H   0  0  0  0  0  0  0  0  0  0  0  0
   40.5170   46.9047   21.4403 H   0  0  0  0  0  0  0  0  0  0  0  0
   39.9084   45.0574   19.9347 H   0  0  0  0  0  0  0  0  0  0  0  0
   41.4810   41.0384   16.8579 H   0  0  0  0  0  0  0  0  0  0  0  0
   42.6849   42.6070   18.7825 H   0  0  0  0  0  0  0  0  0  0  0  0
   41.4888   47.2617   14.3621 H   0  0  0  0  0  0  0  0  0  0  0  0
   40.0359   46.3200   13.8794 H   0  0  0  0  0  0  0  0  0  0  0  0
   41.5227   45.4751   14.4571 H   0  0  0  0  0  0  0  0  0  0  0  0
   44.1727   47.5831   26.3268 H   0  0  0  0  0  0  0  0  0  0  0  0
   47.4421   48.8136   23.7464 H   0  0  0  0  0  0  0  0  0  0  0  0
   41.3502   49.8422   20.6661 H   0  0  0  0  0  0  0  0  0  0  0  0
   38.9410   45.4663   17.1861 H   0  0  0  0  0  0  0  0  0  0  0  0
   39.0551   44.8764   15.5279 H   0  0  0  0  0  0  0  0  0  0  0  0
   40.1983   48.5455   15.9707 H   0  0  0  0  0  0  0  0  0  0  0  0
   39.2946   47.7027   17.2605 H   0  0  0  0  0  0  0  0  0  0  0  0
   38.6914   47.6393   15.5628 H   0  0  0  0  0  0  0  0  0  0  0  0
   48.8831   46.9864   24.6819 H   0  0  0  0  0  0  0  0  0  0  0  0
   44.8238   44.3834   28.8388 H   0  0  0  0  0  0  0  0  0  0  0  0
   43.9781   45.6983   28.1368 H   0  0  0  0  0  0  0  0  0  0  0  0
   41.2222   46.5312   16.5659 H   0  0  0  0  0  0  0  0  0  0  0  0
  1  2  2  0  0  0  0
  1 16  1  0  0  0  0
  1 21  1  0  0  0  0
  2  3  1  0  0  0  0
  2  5  1  0  0  0  0
  3 23  2  0  0  0  0
  3 40  1  0  0  0  0
  4 16  1  0  0  0  0
  4 41  1  0  0  0  0
  4 42  1  0  0  0  0
  5 22  2  0  0  0  0
  5 25  1  0  0  0  0
  6  7  2  0  0  0  0
  6 11  1  0  0  0  0
  6 28  1  0  0  0  0
  7  8  1  0  0  0  0
  7 43  1  0  0  0  0
  8  9  2  0  0  0  0
  8 27  1  0  0  0  0
  9 10  1  0  0  0  0
  9 24  1  0  0  0  0
 10 11  2  0  0  0  0
 10 44  1  0  0  0  0
 11 45  1  0  0  0  0
 12 28  2  0  0  0  0
 12 29  1  0  0  0  0
 12 30  1  0  0  0  0
 13 14  2  0  0  0  0
 13 29  1  0  0  0  0
 13 46  1  0  0  0  0
 14 28  1  0  0  0  0
 14 47  1  0  0  0  0
 15 31  1  0  0  0  0
 15 48  1  0  0  0  0
 15 49  1  0  0  0  0
 15 50  1  0  0  0  0
 16 33  2  0  0  0  0
 17 18  2  0  0  0  0
 17 20  1  0  0  0  0
 17 36  1  0  0  0  0
 18 34  1  0  0  0  0
 18 51  1  0  0  0  0
 19 34  2  0  0  0  0
 19 35  1  0  0  0  0
 19 52  1  0  0  0  0
 20 38  2  0  0  0  0
 20 39  1  0  0  0  0
 21 22  1  0  0  0  0
 22 34  1  0  0  0  0
 23 24  1  0  0  0  0
 23 53  1  0  0  0  0
 24 25  2  0  0  0  0
 25 26  1  0  0  0  0
 30 31  1  0  0  0  0
 30 54  1  0  0  0  0
 30 55  1  0  0  0  0
 31 32  1  0  0  0  0
 31 62  1  0  0  0  0
 32 56  1  0  0  0  0
 32 57  1  0  0  0  0
 32 58  1  0  0  0  0
 35 36  2  0  0  0  0
 35 59  1  0  0  0  0
 36 37  1  0  0  0  0
 37 38  1  0  0  0  0
 39 60  1  0  0  0  0
 39 61  1  0  0  0  0
M  CHG  3  22   1  28   1  31   1
M  END
$$$$
