K22
 OpenBabel04051918413D

 16 17  0  0  0  0  0  0  0  0999 V2000
   22.6780    8.3548   16.7409 Br  0  0  0  0  0  0  0  0  0  0  0  0
   22.2012    7.8689   18.5007 C   0  0  0  0  0  0  0  0  0  0  0  0
   21.2080    8.6112   19.1465 C   0  0  0  0  0  0  0  0  0  0  0  0
   20.3115   10.0723   18.2490 Br  0  0  0  0  0  0  0  0  0  0  0  0
   22.7722    6.8218   19.2300 C   0  0  0  0  0  0  0  0  0  0  0  0
   23.7686    5.8851   18.9095 N   0  3  0  0  0  0  0  0  0  0  0  0
   23.9591    5.0452   20.0272 C   0  0  0  0  0  0  0  0  0  0  0  0
   24.9978    3.7741   20.1980 S   0  0  0  0  0  0  0  0  0  0  0  0
   23.1010    5.4518   21.0337 N   0  3  0  0  0  0  0  0  0  0  0  0
   22.3754    6.5404   20.5407 C   0  0  0  0  0  0  0  0  0  0  0  0
   21.4320    7.2473   21.1841 C   0  0  0  0  0  0  0  0  0  0  0  0
   20.9262    6.8335   22.9599 Br  0  0  0  0  0  0  0  0  0  0  0  0
   20.8313    8.3060   20.4818 C   0  0  0  0  0  0  0  0  0  0  0  0
   19.4938    9.3386   21.3387 Br  0  0  0  0  0  0  0  0  0  0  0  0
   24.2674    5.7995   18.0646 H   0  0  0  0  0  0  0  0  0  0  0  0
   23.0209    5.0474   21.9232 H   0  0  0  0  0  0  0  0  0  0  0  0
  1  2  1  0  0  0  0
  2  3  2  0  0  0  0
  2  5  1  0  0  0  0
  3  4  1  0  0  0  0
  3 13  1  0  0  0  0
  5  6  1  0  0  0  0
  5 10  2  0  0  0  0
  6  7  1  0  0  0  0
  6 15  1  0  0  0  0
  7  8  2  0  0  0  0
  7  9  1  0  0  0  0
  9 10  1  0  0  0  0
  9 16  1  0  0  0  0
 10 11  1  0  0  0  0
 11 12  1  0  0  0  0
 11 13  2  0  0  0  0
 13 14  1  0  0  0  0
M  CHG  2   6   1   9   1
M  END
$$$$
