K26
 OpenBabel04051920273D

 69 70  0  0  1  0  0  0  0  0999 V2000
  -11.0071   24.9593   -8.5072 C   0  0  0  0  0  0  0  0  0  0  0  0
   -9.7343   25.4941   -8.2971 C   0  0  0  0  0  0  0  0  0  0  0  0
   -9.1570   26.3035   -9.2686 C   0  0  0  0  0  0  0  0  0  0  0  0
   -7.9090   26.8080   -9.0301 O   0  0  0  0  0  0  0  0  0  0  0  0
   -9.8282   26.5799  -10.4556 C   0  0  0  0  0  0  0  0  0  0  0  0
  -11.1069   26.0554  -10.6573 C   0  0  0  0  0  0  0  0  0  0  0  0
  -11.7115   25.2438   -9.6831 C   0  0  0  0  0  0  0  0  0  0  0  0
  -13.0734   24.6074   -9.9337 C   0  0  0  0  0  0  0  0  0  0  0  0
  -12.9670   23.2323  -10.6080 C   0  0  1  0  0  0  0  0  0  0  0  0
  -14.7171   22.5306  -11.0597 P   0  0  0  0  0  0  0  0  0  0  0  0
  -14.4309   21.0697  -11.3940 O   0  0  0  0  0  0  0  0  0  0  0  0
  -15.5093   22.7641   -9.7778 O   0  0  0  0  0  0  0  0  0  0  0  0
  -15.1331   23.3893  -12.2549 O   0  0  0  0  0  0  0  0  0  0  0  0
  -12.1433   23.3156  -11.8267 N   0  0  0  0  0  0  0  0  0  0  0  0
  -10.9033   22.7343  -11.9021 C   0  0  0  0  0  0  0  0  0  0  0  0
  -10.4190   21.9879  -11.0500 O   0  0  0  0  0  0  0  0  0  0  0  0
  -10.1018   23.1336  -13.1390 C   0  0  1  0  0  0  0  0  0  0  0  0
   -8.6790   22.9459  -12.8339 N   0  0  0  0  0  0  0  0  0  0  0  0
   -7.7663   23.9675  -12.8150 C   0  0  0  0  0  0  0  0  0  0  0  0
   -8.0151   25.1365  -13.1166 O   0  0  0  0  0  0  0  0  0  0  0  0
   -6.3373   23.4929  -12.5087 C   0  0  2  0  0  0  0  0  0  0  0  0
   -5.7734   24.2069  -11.2536 C   0  0  1  0  0  0  0  0  0  0  0  0
   -6.5871   23.7871  -10.0210 C   0  0  0  0  0  0  0  0  0  0  0  0
   -4.2955   23.8413  -11.0389 C   0  0  0  0  0  0  0  0  0  0  0  0
   -3.5359   24.9313  -10.3130 C   0  0  0  0  0  0  0  0  0  0  0  0
   -5.5455   23.8317  -13.7005 N   0  0  0  0  0  0  0  0  0  0  0  0
   -4.8334   22.8431  -14.3723 C   0  0  0  0  0  0  0  0  0  0  0  0
   -4.1176   23.3331  -15.5909 C   0  0  0  0  0  0  0  0  0  0  0  0
   -4.7622   21.6702  -14.0005 O   0  0  0  0  0  0  0  0  0  0  0  0
  -10.4781   22.2717  -14.3444 C   0  0  0  0  0  0  0  0  0  0  0  0
   -9.8621   22.8423  -15.6092 C   0  0  0  0  0  0  0  0  0  0  0  0
  -10.6258   23.6503  -16.4581 C   0  0  0  0  0  0  0  0  0  0  0  0
  -10.0478   24.2305  -17.5902 C   0  0  0  0  0  0  0  0  0  0  0  0
   -8.7026   24.0127  -17.8665 C   0  0  0  0  0  0  0  0  0  0  0  0
   -8.1680   24.5881  -18.9822 O   0  0  0  0  0  0  0  0  0  0  0  0
   -7.9234   23.2262  -17.0264 C   0  0  0  0  0  0  0  0  0  0  0  0
   -8.5039   22.6411  -15.9022 C   0  0  0  0  0  0  0  0  0  0  0  0
  -11.4522   24.3032   -7.7627 H   0  0  0  0  0  0  0  0  0  0  0  0
   -9.1971   25.2635   -7.3841 H   0  0  0  0  0  0  0  0  0  0  0  0
   -7.6586   27.3236   -9.8134 H   0  0  0  0  0  0  0  0  0  0  0  0
   -9.3762   27.1800  -11.2384 H   0  0  0  0  0  0  0  0  0  0  0  0
  -11.6270   26.2492  -11.5933 H   0  0  0  0  0  0  0  0  0  0  0  0
  -13.6830   25.2905  -10.5387 H   0  0  0  0  0  0  0  0  0  0  0  0
  -13.6001   24.5066   -8.9774 H   0  0  0  0  0  0  0  0  0  0  0  0
  -12.5408   22.5000   -9.9194 H   0  0  0  0  0  0  0  0  0  0  0  0
  -12.5666   23.8671  -12.5618 H   0  0  0  0  0  0  0  0  0  0  0  0
  -10.2897   24.1913  -13.3484 H   0  0  0  0  0  0  0  0  0  0  0  0
   -8.4275   22.0213  -12.5066 H   0  0  0  0  0  0  0  0  0  0  0  0
   -6.3297   22.4195  -12.3429 H   0  0  0  0  0  0  0  0  0  0  0  0
   -5.8761   25.2904  -11.3838 H   0  0  0  0  0  0  0  0  0  0  0  0
   -6.2009   24.2668   -9.1167 H   0  0  0  0  0  0  0  0  0  0  0  0
   -6.5480   22.7023   -9.8729 H   0  0  0  0  0  0  0  0  0  0  0  0
   -7.6374   24.0643  -10.1259 H   0  0  0  0  0  0  0  0  0  0  0  0
   -3.7841   23.6827  -11.9982 H   0  0  0  0  0  0  0  0  0  0  0  0
   -4.2120   22.8979  -10.4908 H   0  0  0  0  0  0  0  0  0  0  0  0
   -2.4864   24.6409  -10.2005 H   0  0  0  0  0  0  0  0  0  0  0  0
   -3.9532   25.1104   -9.3196 H   0  0  0  0  0  0  0  0  0  0  0  0
   -3.5659   25.8681  -10.8801 H   0  0  0  0  0  0  0  0  0  0  0  0
   -5.6262   24.7574  -14.0883 H   0  0  0  0  0  0  0  0  0  0  0  0
   -3.5779   22.4955  -16.0444 H   0  0  0  0  0  0  0  0  0  0  0  0
   -3.3982   24.1099  -15.3212 H   0  0  0  0  0  0  0  0  0  0  0  0
   -4.8328   23.7222  -16.3173 H   0  0  0  0  0  0  0  0  0  0  0  0
  -11.5672   22.2029  -14.4542 H   0  0  0  0  0  0  0  0  0  0  0  0
  -10.1229   21.2409  -14.2065 H   0  0  0  0  0  0  0  0  0  0  0  0
  -11.6747   23.8364  -16.2312 H   0  0  0  0  0  0  0  0  0  0  0  0
  -10.6509   24.8495  -18.2442 H   0  0  0  0  0  0  0  0  0  0  0  0
   -7.2328   24.3295  -19.0292 H   0  0  0  0  0  0  0  0  0  0  0  0
   -6.8736   23.0554  -17.2257 H   0  0  0  0  0  0  0  0  0  0  0  0
   -7.8854   22.0454  -15.2341 H   0  0  0  0  0  0  0  0  0  0  0  0
  1  2  2  0  0  0  0
  1  7  1  0  0  0  0
  1 38  1  0  0  0  0
  2  3  1  0  0  0  0
  2 39  1  0  0  0  0
  3  4  1  0  0  0  0
  3  5  2  0  0  0  0
  4 40  1  0  0  0  0
  5  6  1  0  0  0  0
  5 41  1  0  0  0  0
  6  7  2  0  0  0  0
  6 42  1  0  0  0  0
  7  8  1  0  0  0  0
  8  9  1  0  0  0  0
  8 43  1  0  0  0  0
  8 44  1  0  0  0  0
  9 10  1  0  0  0  0
  9 14  1  0  0  0  0
  9 45  1  1  0  0  0
 10 11  2  0  0  0  0
 10 12  1  0  0  0  0
 10 13  1  0  0  0  0
 14 15  1  0  0  0  0
 14 46  1  0  0  0  0
 15 16  2  0  0  0  0
 15 17  1  0  0  0  0
 17 18  1  0  0  0  0
 17 30  1  0  0  0  0
 17 47  1  6  0  0  0
 18 19  1  0  0  0  0
 18 48  1  0  0  0  0
 19 20  2  0  0  0  0
 19 21  1  0  0  0  0
 21 22  1  0  0  0  0
 21 26  1  0  0  0  0
 21 49  1  1  0  0  0
 22 23  1  0  0  0  0
 22 24  1  0  0  0  0
 22 50  1  6  0  0  0
 23 51  1  0  0  0  0
 23 52  1  0  0  0  0
 23 53  1  0  0  0  0
 24 25  1  0  0  0  0
 24 54  1  0  0  0  0
 24 55  1  0  0  0  0
 25 56  1  0  0  0  0
 25 57  1  0  0  0  0
 25 58  1  0  0  0  0
 26 27  1  0  0  0  0
 26 59  1  0  0  0  0
 27 28  1  0  0  0  0
 27 29  2  0  0  0  0
 28 60  1  0  0  0  0
 28 61  1  0  0  0  0
 28 62  1  0  0  0  0
 30 31  1  0  0  0  0
 30 63  1  0  0  0  0
 30 64  1  0  0  0  0
 31 32  2  0  0  0  0
 31 37  1  0  0  0  0
 32 33  1  0  0  0  0
 32 65  1  0  0  0  0
 33 34  2  0  0  0  0
 33 66  1  0  0  0  0
 34 35  1  0  0  0  0
 34 36  1  0  0  0  0
 35 67  1  0  0  0  0
 36 37  2  0  0  0  0
 36 68  1  0  0  0  0
 37 69  1  0  0  0  0
M  END
$$$$
