KDO
 OpenBabel04051919163D

 64 65  0  0  1  0  0  0  0  0999 V2000
   31.9631   -0.6510    0.2597 C   0  0  0  0  0  0  0  0  0  0  0  0
   31.8117    0.6141    0.3744 O   0  0  0  0  0  0  0  0  0  0  0  0
   33.0048   -1.2786   -0.0748 O   0  0  0  0  0  0  0  0  0  0  0  0
   30.6706   -1.5404    0.6263 C   0  0  1  0  0  0  0  0  0  0  0  0
   29.7610   -1.3497   -0.5905 C   0  0  0  0  0  0  0  0  0  0  0  0
   28.5907   -2.3255   -0.5426 C   0  0  1  0  0  0  0  0  0  0  0  0
   27.8244   -2.2017   -1.7462 O   0  0  0  0  0  0  0  0  0  0  0  0
   29.0728   -3.7754   -0.3236 C   0  0  1  0  0  0  0  0  0  0  0  0
   29.8490   -4.2196   -1.4445 O   0  0  0  0  0  0  0  0  0  0  0  0
   29.9138   -3.8013    0.9565 C   0  0  2  0  0  0  0  0  0  0  0  0
   31.0328   -2.9305    0.7792 O   0  0  0  0  0  0  0  0  0  0  0  0
   30.4342   -5.2061    1.3207 C   0  0  2  0  0  0  0  0  0  0  0  0
   29.3562   -6.1402    1.4973 O   0  0  0  0  0  0  0  0  0  0  0  0
   31.2574   -5.1840    2.6088 C   0  0  0  0  0  0  0  0  0  0  0  0
   30.4285   -5.0605    3.7639 O   0  0  0  0  0  0  0  0  0  0  0  0
   34.5470   -4.0907    3.6259 C   0  0  0  0  0  0  0  0  0  0  0  0
   34.4475   -2.9283    4.2842 C   0  0  0  0  0  0  0  0  0  0  0  0
   33.5128   -2.6518    5.4339 C   0  0  0  0  0  0  0  0  0  0  0  0
   32.1844   -2.8918    5.0007 O   0  0  0  0  0  0  0  0  0  0  0  0
   31.1257   -1.9702    5.3304 C   0  0  2  0  0  0  0  0  0  0  0  0
   30.3254   -2.5346    6.5594 C   0  0  0  0  0  0  0  0  0  0  0  0
   28.8963   -2.4827    6.4197 O   0  0  0  0  0  0  0  0  0  0  0  0
   30.1953   -1.8855    4.0987 C   0  0  0  0  0  0  0  0  0  0  0  0
   31.5899   -0.6664    5.7138 O   0  0  0  0  0  0  0  0  0  0  0  0
   32.1381    0.1439    4.6502 C   0  0  2  0  0  0  0  0  0  0  0  0
   32.6361    1.4728    5.2607 C   0  0  2  0  0  0  0  0  0  0  0  0
   33.3123    2.2722    4.2860 O   0  0  0  0  0  0  0  0  0  0  0  0
   33.6413    1.2102    6.4043 C   0  0  0  0  0  0  0  0  0  0  0  0
   33.0567    0.6018    7.5546 O   0  0  0  0  0  0  0  0  0  0  0  0
   31.1509    0.3053    3.4962 C   0  0  2  0  0  0  0  0  0  0  0  0
   29.9441    0.9481    3.9364 O   0  0  0  0  0  0  0  0  0  0  0  0
   30.8673   -1.1095    2.9736 C   0  0  2  0  0  0  0  0  0  0  0  0
   29.9973   -1.0602    1.8284 O   0  0  0  0  0  0  0  0  0  0  0  0
   30.3216   -1.5155   -1.5219 H   0  0  0  0  0  0  0  0  0  0  0  0
   29.3777   -0.3280   -0.6459 H   0  0  0  0  0  0  0  0  0  0  0  0
   27.9222   -2.0424    0.2801 H   0  0  0  0  0  0  0  0  0  0  0  0
   27.1894   -2.9369   -1.7600 H   0  0  0  0  0  0  0  0  0  0  0  0
   28.2115   -4.4456   -0.2510 H   0  0  0  0  0  0  0  0  0  0  0  0
   30.6838   -3.7044   -1.4248 H   0  0  0  0  0  0  0  0  0  0  0  0
   29.2817   -3.4579    1.7835 H   0  0  0  0  0  0  0  0  0  0  0  0
   31.0858   -5.5773    0.5154 H   0  0  0  0  0  0  0  0  0  0  0  0
   28.7268   -5.7159    2.1014 H   0  0  0  0  0  0  0  0  0  0  0  0
   32.0010   -4.3772    2.6095 H   0  0  0  0  0  0  0  0  0  0  0  0
   31.7962   -6.1319    2.7259 H   0  0  0  0  0  0  0  0  0  0  0  0
   29.8433   -5.8415    3.7874 H   0  0  0  0  0  0  0  0  0  0  0  0
   35.2156   -4.1936    2.7750 H   0  0  0  0  0  0  0  0  0  0  0  0
   33.9265   -4.9392    3.8870 H   0  0  0  0  0  0  0  0  0  0  0  0
   35.0708   -2.1005    3.9512 H   0  0  0  0  0  0  0  0  0  0  0  0
   33.6863   -1.6297    5.7663 H   0  0  0  0  0  0  0  0  0  0  0  0
   33.7660   -3.2945    6.2828 H   0  0  0  0  0  0  0  0  0  0  0  0
   30.5547   -1.9403    7.4523 H   0  0  0  0  0  0  0  0  0  0  0  0
   30.5891   -3.5765    6.7643 H   0  0  0  0  0  0  0  0  0  0  0  0
   28.5120   -2.7989    7.2529 H   0  0  0  0  0  0  0  0  0  0  0  0
   29.2448   -1.3994    4.3369 H   0  0  0  0  0  0  0  0  0  0  0  0
   29.9252   -2.8780    3.7498 H   0  0  0  0  0  0  0  0  0  0  0  0
   33.0220   -0.3527    4.2309 H   0  0  0  0  0  0  0  0  0  0  0  0
   31.7900    2.0406    5.6644 H   0  0  0  0  0  0  0  0  0  0  0  0
   32.6893    2.4557    3.5582 H   0  0  0  0  0  0  0  0  0  0  0  0
   34.1105    2.1467    6.7200 H   0  0  0  0  0  0  0  0  0  0  0  0
   34.4565    0.5637    6.0564 H   0  0  0  0  0  0  0  0  0  0  0  0
   32.4657   -0.1001    7.2132 H   0  0  0  0  0  0  0  0  0  0  0  0
   31.5608    0.9378    2.7119 H   0  0  0  0  0  0  0  0  0  0  0  0
   29.3308    0.8481    3.1808 H   0  0  0  0  0  0  0  0  0  0  0  0
   31.8130   -1.6013    2.7161 H   0  0  0  0  0  0  0  0  0  0  0  0
  1  2  2  0  0  0  0
  1  3  1  0  0  0  0
  4  1  1  6  0  0  0
  4  5  1  0  0  0  0
  4 11  1  0  0  0  0
  4 33  1  0  0  0  0
  5  6  1  0  0  0  0
  5 34  1  0  0  0  0
  5 35  1  0  0  0  0
  6  7  1  0  0  0  0
  6  8  1  0  0  0  0
  6 36  1  1  0  0  0
  7 37  1  0  0  0  0
  8  9  1  0  0  0  0
  8 10  1  0  0  0  0
  8 38  1  1  0  0  0
  9 39  1  0  0  0  0
 10 11  1  0  0  0  0
 10 12  1  0  0  0  0
 10 40  1  1  0  0  0
 12 13  1  0  0  0  0
 12 14  1  0  0  0  0
 12 41  1  6  0  0  0
 13 42  1  0  0  0  0
 14 15  1  0  0  0  0
 14 43  1  0  0  0  0
 14 44  1  0  0  0  0
 15 45  1  0  0  0  0
 16 17  2  0  0  0  0
 16 46  1  0  0  0  0
 16 47  1  0  0  0  0
 17 18  1  0  0  0  0
 17 48  1  0  0  0  0
 18 19  1  0  0  0  0
 18 49  1  0  0  0  0
 18 50  1  0  0  0  0
 20 19  1  6  0  0  0
 20 21  1  0  0  0  0
 20 23  1  0  0  0  0
 20 24  1  0  0  0  0
 21 22  1  0  0  0  0
 21 51  1  0  0  0  0
 21 52  1  0  0  0  0
 22 53  1  0  0  0  0
 23 32  1  0  0  0  0
 23 54  1  0  0  0  0
 23 55  1  0  0  0  0
 24 25  1  0  0  0  0
 25 26  1  0  0  0  0
 25 30  1  0  0  0  0
 25 56  1  6  0  0  0
 26 27  1  0  0  0  0
 26 28  1  0  0  0  0
 26 57  1  1  0  0  0
 27 58  1  0  0  0  0
 28 29  1  0  0  0  0
 28 59  1  0  0  0  0
 28 60  1  0  0  0  0
 29 61  1  0  0  0  0
 30 31  1  0  0  0  0
 30 32  1  0  0  0  0
 30 62  1  6  0  0  0
 31 63  1  0  0  0  0
 32 33  1  0  0  0  0
 32 64  1  6  0  0  0
M  END
$$$$
