KGQ
 OpenBabel04051918143D

 98101  0  0  1  0  0  0  0  0999 V2000
   13.6101   22.0464   18.0237 N   0  0  0  0  0  0  0  0  0  0  0  0
   11.8945   17.9767   18.5033 C   0  0  1  0  0  0  0  0  0  0  0  0
   12.1554   19.1231   12.6103 O   0  0  0  0  0  0  0  0  0  0  0  0
   14.5251   22.9325   17.2896 C   0  0  1  0  0  0  0  0  0  0  0  0
   13.8429   23.4091   15.9877 C   0  0  0  0  0  0  0  0  0  0  0  0
   13.3891   22.2789   15.0886 C   0  0  0  0  0  0  0  0  0  0  0  0
   14.3090   21.5795   14.2965 C   0  0  0  0  0  0  0  0  0  0  0  0
   13.8852   20.5206   13.4817 C   0  0  0  0  0  0  0  0  0  0  0  0
   12.5435   20.1399   13.4629 C   0  0  0  0  0  0  0  0  0  0  0  0
   11.8864   17.9236   13.3524 C   0  0  0  0  0  0  0  0  0  0  0  0
   11.3173   16.5596   12.3111 P   0  0  0  0  0  0  0  0  0  0  0  0
   12.5998   15.6112   12.0184 O   0  0  0  0  0  0  0  0  0  0  0  0
   13.8571   16.1745   11.7035 C   0  0  0  0  0  0  0  0  0  0  0  0
   14.8911   15.0680   11.6242 C   0  0  0  0  0  0  0  0  0  0  0  0
   10.2156   15.7760   12.9723 O   0  0  0  0  0  0  0  0  0  0  0  0
   10.8939   17.0658   10.8269 O   0  0  0  0  0  0  0  0  0  0  0  0
   10.2823   16.0584   10.0143 C   0  0  0  0  0  0  0  0  0  0  0  0
    9.5926   16.6475    8.8041 C   0  0  0  0  0  0  0  0  0  0  0  0
   11.6184   20.8373   14.2383 C   0  0  0  0  0  0  0  0  0  0  0  0
   12.0404   21.8975   15.0506 C   0  0  0  0  0  0  0  0  0  0  0  0
   14.9478   24.1112   18.2175 C   0  0  2  0  0  0  0  0  0  0  0  0
   13.8102   24.9022   18.5858 O   0  0  0  0  0  0  0  0  0  0  0  0
   16.0499   25.0271   17.6441 C   0  0  0  0  0  0  0  0  0  0  0  0
   17.3949   24.3808   17.5748 N   0  0  0  0  0  0  0  0  0  0  0  0
   18.4078   25.0170   18.4919 C   0  0  0  0  0  0  0  0  0  0  0  0
   18.3787   24.6256   19.9698 C   0  0  0  0  0  0  0  0  0  0  0  0
   19.8013   24.7830   20.5490 C   0  0  0  0  0  0  0  0  0  0  0  0
   17.9071   23.2112   20.2937 C   0  0  0  0  0  0  0  0  0  0  0  0
   18.0012   24.1179   15.9636 S   0  0  0  0  0  0  0  0  0  0  0  0
   19.0006   23.0686   16.0279 O   0  0  0  0  0  0  0  0  0  0  0  0
   16.8792   24.0052   15.0610 O   0  0  0  0  0  0  0  0  0  0  0  0
   18.8747   25.6325   15.5637 C   0  0  0  0  0  0  0  0  0  0  0  0
   20.2554   25.6748   15.7957 C   0  0  0  0  0  0  0  0  0  0  0  0
   20.9894   26.8189   15.4890 C   0  0  0  0  0  0  0  0  0  0  0  0
   20.3588   27.9221   14.9151 C   0  0  0  0  0  0  0  0  0  0  0  0
   20.9956   29.0783   14.5471 O   0  0  0  0  0  0  0  0  0  0  0  0
   22.2824   29.2869   15.1254 C   0  0  0  0  0  0  0  0  0  0  0  0
   18.9844   27.8626   14.6431 C   0  0  0  0  0  0  0  0  0  0  0  0
   18.2311   26.7206   14.9722 C   0  0  0  0  0  0  0  0  0  0  0  0
   13.9112   20.7649   18.3459 C   0  0  0  0  0  0  0  0  0  0  0  0
   14.9687   20.2136   18.1631 O   0  0  0  0  0  0  0  0  0  0  0  0
   12.8157   20.2040   18.9034 O   0  0  0  0  0  0  0  0  0  0  0  0
   12.9029   18.8184   19.2761 C   0  0  1  0  0  0  0  0  0  0  0  0
   12.3839   18.6948   20.6951 C   0  0  0  0  0  0  0  0  0  0  0  0
   10.9581   18.7604   20.5601 O   0  0  0  0  0  0  0  0  0  0  0  0
   10.6420   18.0191   19.3784 C   0  0  1  0  0  0  0  0  0  0  0  0
    9.5974   18.6382   18.6279 O   0  0  0  0  0  0  0  0  0  0  0  0
   10.2139   19.3434   17.5490 C   0  0  0  0  0  0  0  0  0  0  0  0
   11.4114   18.5002   17.1680 C   0  0  0  0  0  0  0  0  0  0  0  0
   12.6827   22.3739   18.2566 H   0  0  0  0  0  0  0  0  0  0  0  0
   12.2669   16.9487   18.4164 H   0  0  0  0  0  0  0  0  0  0  0  0
   15.4178   22.3477   17.0355 H   0  0  0  0  0  0  0  0  0  0  0  0
   14.5096   24.0573   15.4127 H   0  0  0  0  0  0  0  0  0  0  0  0
   12.9769   24.0391   16.2269 H   0  0  0  0  0  0  0  0  0  0  0  0
   15.3651   21.8542   14.3046 H   0  0  0  0  0  0  0  0  0  0  0  0
   14.6116   19.9999   12.8661 H   0  0  0  0  0  0  0  0  0  0  0  0
   11.0952   18.1011   14.0863 H   0  0  0  0  0  0  0  0  0  0  0  0
   12.7842   17.6094   13.8962 H   0  0  0  0  0  0  0  0  0  0  0  0
   14.1608   16.8542   12.5005 H   0  0  0  0  0  0  0  0  0  0  0  0
   13.7975   16.7282   10.7630 H   0  0  0  0  0  0  0  0  0  0  0  0
   15.8856   15.4887   11.4489 H   0  0  0  0  0  0  0  0  0  0  0  0
   14.6558   14.3629   10.8217 H   0  0  0  0  0  0  0  0  0  0  0  0
   14.9150   14.4939   12.5576 H   0  0  0  0  0  0  0  0  0  0  0  0
    9.5329   15.5134   10.5980 H   0  0  0  0  0  0  0  0  0  0  0  0
   11.0517   15.3477    9.6942 H   0  0  0  0  0  0  0  0  0  0  0  0
    9.1453   15.8549    8.1916 H   0  0  0  0  0  0  0  0  0  0  0  0
   10.2965   17.2103    8.1771 H   0  0  0  0  0  0  0  0  0  0  0  0
    8.7975   17.3390    9.1001 H   0  0  0  0  0  0  0  0  0  0  0  0
   10.5657   20.5770   14.2162 H   0  0  0  0  0  0  0  0  0  0  0  0
   11.3081   22.4266   15.6591 H   0  0  0  0  0  0  0  0  0  0  0  0
   15.2831   23.6777   19.1560 H   0  0  0  0  0  0  0  0  0  0  0  0
   13.5021   25.3827   17.8015 H   0  0  0  0  0  0  0  0  0  0  0  0
   16.0987   25.9289   18.2626 H   0  0  0  0  0  0  0  0  0  0  0  0
   15.7365   25.3955   16.6687 H   0  0  0  0  0  0  0  0  0  0  0  0
   18.2697   26.1038   18.4359 H   0  0  0  0  0  0  0  0  0  0  0  0
   19.4115   24.8198   18.1163 H   0  0  0  0  0  0  0  0  0  0  0  0
   17.7224   25.3226   20.5059 H   0  0  0  0  0  0  0  0  0  0  0  0
   19.8364   24.5173   21.6122 H   0  0  0  0  0  0  0  0  0  0  0  0
   20.1539   25.8136   20.4455 H   0  0  0  0  0  0  0  0  0  0  0  0
   20.5151   24.1311   20.0266 H   0  0  0  0  0  0  0  0  0  0  0  0
   16.9033   23.0186   19.9344 H   0  0  0  0  0  0  0  0  0  0  0  0
   17.8733   23.0630   21.3801 H   0  0  0  0  0  0  0  0  0  0  0  0
   18.5691   22.4560   19.8610 H   0  0  0  0  0  0  0  0  0  0  0  0
   20.7758   24.8205   16.2250 H   0  0  0  0  0  0  0  0  0  0  0  0
   22.0545   26.8011   15.6921 H   0  0  0  0  0  0  0  0  0  0  0  0
   22.6816   30.2356   14.7547 H   0  0  0  0  0  0  0  0  0  0  0  0
   22.9922   28.5063   14.8325 H   0  0  0  0  0  0  0  0  0  0  0  0
   22.2003   29.3553   16.2156 H   0  0  0  0  0  0  0  0  0  0  0  0
   18.4989   28.7142   14.1738 H   0  0  0  0  0  0  0  0  0  0  0  0
   17.1732   26.6935   14.7444 H   0  0  0  0  0  0  0  0  0  0  0  0
   13.9236   18.4301   19.1917 H   0  0  0  0  0  0  0  0  0  0  0  0
   12.7257   19.4942   21.3578 H   0  0  0  0  0  0  0  0  0  0  0  0
   12.6275   17.7209   21.1334 H   0  0  0  0  0  0  0  0  0  0  0  0
   10.3188   17.0194   19.6863 H   0  0  0  0  0  0  0  0  0  0  0  0
   10.5009   20.3363   17.9085 H   0  0  0  0  0  0  0  0  0  0  0  0
    9.5029   19.4659   16.7276 H   0  0  0  0  0  0  0  0  0  0  0  0
   11.0690   17.6530   16.5599 H   0  0  0  0  0  0  0  0  0  0  0  0
   12.1657   19.0400   16.5924 H   0  0  0  0  0  0  0  0  0  0  0  0
  1  4  1  0  0  0  0
  1 40  1  0  0  0  0
  1 50  1  0  0  0  0
  2 43  1  0  0  0  0
  2 46  1  0  0  0  0
  2 49  1  0  0  0  0
  2 51  1  6  0  0  0
  3  9  1  0  0  0  0
  3 10  1  0  0  0  0
  4  5  1  0  0  0  0
  4 21  1  0  0  0  0
  4 52  1  6  0  0  0
  5  6  1  0  0  0  0
  5 53  1  0  0  0  0
  5 54  1  0  0  0  0
  6  7  2  0  0  0  0
  6 20  1  0  0  0  0
  7  8  1  0  0  0  0
  7 55  1  0  0  0  0
  8  9  2  0  0  0  0
  8 56  1  0  0  0  0
  9 19  1  0  0  0  0
 10 11  1  0  0  0  0
 10 57  1  0  0  0  0
 10 58  1  0  0  0  0
 11 12  1  0  0  0  0
 11 15  2  0  0  0  0
 11 16  1  0  0  0  0
 12 13  1  0  0  0  0
 13 14  1  0  0  0  0
 13 59  1  0  0  0  0
 13 60  1  0  0  0  0
 14 61  1  0  0  0  0
 14 62  1  0  0  0  0
 14 63  1  0  0  0  0
 16 17  1  0  0  0  0
 17 18  1  0  0  0  0
 17 64  1  0  0  0  0
 17 65  1  0  0  0  0
 18 66  1  0  0  0  0
 18 67  1  0  0  0  0
 18 68  1  0  0  0  0
 19 20  2  0  0  0  0
 19 69  1  0  0  0  0
 20 70  1  0  0  0  0
 21 22  1  0  0  0  0
 21 23  1  0  0  0  0
 21 71  1  1  0  0  0
 22 72  1  0  0  0  0
 23 24  1  0  0  0  0
 23 73  1  0  0  0  0
 23 74  1  0  0  0  0
 24 25  1  0  0  0  0
 24 29  1  0  0  0  0
 25 26  1  0  0  0  0
 25 75  1  0  0  0  0
 25 76  1  0  0  0  0
 26 27  1  0  0  0  0
 26 28  1  0  0  0  0
 26 77  1  0  0  0  0
 27 78  1  0  0  0  0
 27 79  1  0  0  0  0
 27 80  1  0  0  0  0
 28 81  1  0  0  0  0
 28 82  1  0  0  0  0
 28 83  1  0  0  0  0
 29 30  2  0  0  0  0
 29 31  2  0  0  0  0
 29 32  1  0  0  0  0
 32 33  2  0  0  0  0
 32 39  1  0  0  0  0
 33 34  1  0  0  0  0
 33 84  1  0  0  0  0
 34 35  2  0  0  0  0
 34 85  1  0  0  0  0
 35 36  1  0  0  0  0
 35 38  1  0  0  0  0
 36 37  1  0  0  0  0
 37 86  1  0  0  0  0
 37 87  1  0  0  0  0
 37 88  1  0  0  0  0
 38 39  2  0  0  0  0
 38 89  1  0  0  0  0
 39 90  1  0  0  0  0
 40 41  2  0  0  0  0
 40 42  1  0  0  0  0
 42 43  1  0  0  0  0
 43 44  1  0  0  0  0
 43 91  1  6  0  0  0
 44 45  1  0  0  0  0
 44 92  1  0  0  0  0
 44 93  1  0  0  0  0
 45 46  1  0  0  0  0
 46 47  1  0  0  0  0
 46 94  1  1  0  0  0
 47 48  1  0  0  0  0
 48 49  1  0  0  0  0
 48 95  1  0  0  0  0
 48 96  1  0  0  0  0
 49 97  1  0  0  0  0
 49 98  1  0  0  0  0
M  END
$$$$
