KIF
 OpenBabel04051920093D

 28 29  0  0  1  0  0  0  0  0999 V2000
  -15.1514  -21.7858   47.1922 C   0  0  1  0  0  0  0  0  0  0  0  0
  -16.3197  -22.5059   47.5992 O   0  0  0  0  0  0  0  0  0  0  0  0
  -15.3707  -20.2753   47.4366 C   0  0  2  0  0  0  0  0  0  0  0  0
  -16.0484  -19.6915   46.3079 O   0  0  0  0  0  0  0  0  0  0  0  0
  -14.0501  -19.5201   47.7007 C   0  0  2  0  0  0  0  0  0  0  0  0
  -14.1218  -18.1640   47.2868 O   0  0  0  0  0  0  0  0  0  0  0  0
  -12.8675  -20.2601   47.0727 C   0  0  1  0  0  0  0  0  0  0  0  0
  -11.6213  -19.5658   47.2915 N   0  0  0  0  0  0  0  0  0  0  0  0
  -10.8606  -20.1666   48.2810 C   0  0  0  0  0  0  0  0  0  0  0  0
   -9.8346  -19.8527   48.7617 O   0  0  0  0  0  0  0  0  0  0  0  0
  -11.6780  -21.4154   48.6710 C   0  0  0  0  0  0  0  0  0  0  0  0
  -11.3403  -22.1497   49.5715 O   0  0  0  0  0  0  0  0  0  0  0  0
  -12.7751  -21.4710   47.8483 N   0  0  0  0  0  0  0  0  0  0  0  0
  -13.9478  -22.3566   47.9827 C   0  0  2  0  0  0  0  0  0  0  0  0
  -13.6061  -23.7775   47.5130 C   0  0  0  0  0  0  0  0  0  0  0  0
  -13.1785  -23.7199   46.1486 O   0  0  0  0  0  0  0  0  0  0  0  0
  -15.0204  -21.9461   46.1129 H   0  0  0  0  0  0  0  0  0  0  0  0
  -17.0787  -22.1795   47.0917 H   0  0  0  0  0  0  0  0  0  0  0  0
  -16.0232  -20.1462   48.3079 H   0  0  0  0  0  0  0  0  0  0  0  0
  -16.9261  -20.0888   46.1943 H   0  0  0  0  0  0  0  0  0  0  0  0
  -13.8828  -19.5308   48.7904 H   0  0  0  0  0  0  0  0  0  0  0  0
  -13.2648  -17.7507   47.4766 H   0  0  0  0  0  0  0  0  0  0  0  0
  -13.0109  -20.4715   45.9993 H   0  0  0  0  0  0  0  0  0  0  0  0
  -11.2779  -18.7295   46.8353 H   0  0  0  0  0  0  0  0  0  0  0  0
  -14.2448  -22.4431   49.0366 H   0  0  0  0  0  0  0  0  0  0  0  0
  -14.4680  -24.4566   47.5908 H   0  0  0  0  0  0  0  0  0  0  0  0
  -12.7866  -24.1935   48.1129 H   0  0  0  0  0  0  0  0  0  0  0  0
  -13.9109  -23.3678   45.6192 H   0  0  0  0  0  0  0  0  0  0  0  0
  1  2  1  0  0  0  0
  1  3  1  0  0  0  0
  1 14  1  0  0  0  0
  1 17  1  6  0  0  0
  2 18  1  0  0  0  0
  3  4  1  0  0  0  0
  3  5  1  0  0  0  0
  3 19  1  1  0  0  0
  4 20  1  0  0  0  0
  5  6  1  0  0  0  0
  5  7  1  0  0  0  0
  5 21  1  1  0  0  0
  6 22  1  0  0  0  0
  7  8  1  0  0  0  0
  7 13  1  0  0  0  0
  7 23  1  6  0  0  0
  8  9  1  0  0  0  0
  8 24  1  0  0  0  0
  9 10  2  0  0  0  0
  9 11  1  0  0  0  0
 11 12  2  0  0  0  0
 11 13  1  0  0  0  0
 13 14  1  0  0  0  0
 14 15  1  0  0  0  0
 14 25  1  1  0  0  0
 15 16  1  0  0  0  0
 15 26  1  0  0  0  0
 15 27  1  0  0  0  0
 16 28  1  0  0  0  0
M  END
$$$$
