KR2
 OpenBabel04051918393D

 55 57  0  0  1  0  0  0  0  0999 V2000
   -5.5154    1.1505   -6.2013 C   0  0  0  0  0  0  0  0  0  0  0  0
   -6.0096    0.4996   -5.0725 C   0  0  0  0  0  0  0  0  0  0  0  0
   -5.3992    0.6895   -3.8277 C   0  0  0  0  0  0  0  0  0  0  0  0
   -4.2704    1.5018   -3.7101 C   0  0  0  0  0  0  0  0  0  0  0  0
   -3.7607    2.1377   -4.8355 C   0  0  0  0  0  0  0  0  0  0  0  0
   -4.4061    1.9845   -6.0658 C   0  0  0  0  0  0  0  0  0  0  0  0
   -3.9394    2.7840   -7.2083 C   0  0  0  0  0  0  0  0  0  0  0  0
   -3.1310    2.3310   -8.0062 O   0  0  0  0  0  0  0  0  0  0  0  0
   -4.4119    4.0950   -7.1837 N   0  0  0  0  0  0  0  0  0  0  0  0
   -5.2060    4.5993   -8.2995 C   0  0  0  0  0  0  0  0  0  0  0  0
   -5.0558    6.0794   -8.6678 C   0  0  0  0  0  0  0  0  0  0  0  0
   -3.6950    6.4014   -9.2883 C   0  0  0  0  0  0  0  0  0  0  0  0
   -2.5832    6.5984   -8.2601 C   0  0  0  0  0  0  0  0  0  0  0  0
   -2.3450    5.3537   -7.4190 C   0  0  0  0  0  0  0  0  0  0  0  0
   -3.5219    5.0378   -6.6057 N   0  0  0  0  0  0  0  0  0  0  0  0
   -3.9031    5.5927   -5.4020 C   0  0  0  0  0  0  0  0  0  0  0  0
   -5.0045    5.4163   -4.8760 O   0  0  0  0  0  0  0  0  0  0  0  0
   -2.8754    6.4588   -4.7131 C   0  0  0  0  0  0  0  0  0  0  0  0
   -3.2667    6.6146   -3.2446 C   0  0  2  0  0  0  0  0  0  0  0  0
   -2.5201    7.7894   -2.6743 N   0  3  0  0  0  0  0  0  0  0  0  0
   -2.9108    5.3545   -2.4249 C   0  0  0  0  0  0  0  0  0  0  0  0
   -3.4961    5.2558   -1.0394 C   0  0  0  0  0  0  0  0  0  0  0  0
   -4.5956    6.0120   -0.6019 C   0  0  0  0  0  0  0  0  0  0  0  0
   -5.0361    5.8958    0.7121 C   0  0  0  0  0  0  0  0  0  0  0  0
   -6.0493    6.6790    1.1233 F   0  0  0  0  0  0  0  0  0  0  0  0
   -4.4320    5.0125    1.5935 C   0  0  0  0  0  0  0  0  0  0  0  0
   -4.8416    4.9457    2.8646 F   0  0  0  0  0  0  0  0  0  0  0  0
   -3.3912    4.1988    1.1645 C   0  0  0  0  0  0  0  0  0  0  0  0
   -2.9400    4.3233   -0.1425 C   0  0  0  0  0  0  0  0  0  0  0  0
   -1.9368    3.5423   -0.5592 F   0  0  0  0  0  0  0  0  0  0  0  0
   -5.9969    1.0154   -7.1668 H   0  0  0  0  0  0  0  0  0  0  0  0
   -6.8776   -0.1506   -5.1551 H   0  0  0  0  0  0  0  0  0  0  0  0
   -5.8039    0.1962   -2.9474 H   0  0  0  0  0  0  0  0  0  0  0  0
   -3.7952    1.6378   -2.7427 H   0  0  0  0  0  0  0  0  0  0  0  0
   -2.8767    2.7609   -4.7626 H   0  0  0  0  0  0  0  0  0  0  0  0
   -6.2486    4.4322   -7.9993 H   0  0  0  0  0  0  0  0  0  0  0  0
   -5.0386    3.9658   -9.1783 H   0  0  0  0  0  0  0  0  0  0  0  0
   -5.2511    6.7253   -7.8026 H   0  0  0  0  0  0  0  0  0  0  0  0
   -5.8305    6.3177   -9.4074 H   0  0  0  0  0  0  0  0  0  0  0  0
   -3.7848    7.3267   -9.8693 H   0  0  0  0  0  0  0  0  0  0  0  0
   -3.4100    5.6112   -9.9943 H   0  0  0  0  0  0  0  0  0  0  0  0
   -2.8305    7.4517   -7.6171 H   0  0  0  0  0  0  0  0  0  0  0  0
   -1.6546    6.8546   -8.7820 H   0  0  0  0  0  0  0  0  0  0  0  0
   -1.4925    5.5241   -6.7564 H   0  0  0  0  0  0  0  0  0  0  0  0
   -2.0718    4.5110   -8.0591 H   0  0  0  0  0  0  0  0  0  0  0  0
   -2.8602    7.4292   -5.2181 H   0  0  0  0  0  0  0  0  0  0  0  0
   -1.8839    6.0024   -4.7747 H   0  0  0  0  0  0  0  0  0  0  0  0
   -4.3223    6.8815   -3.1564 H   0  0  0  0  0  0  0  0  0  0  0  0
   -2.7372    7.9181   -1.6751 H   0  0  0  0  0  0  0  0  0  0  0  0
   -1.4987    7.6873   -2.7505 H   0  0  0  0  0  0  0  0  0  0  0  0
   -1.8140    5.3110   -2.3319 H   0  0  0  0  0  0  0  0  0  0  0  0
   -3.2075    4.4501   -2.9702 H   0  0  0  0  0  0  0  0  0  0  0  0
   -5.1487    6.6898   -1.2410 H   0  0  0  0  0  0  0  0  0  0  0  0
   -2.9312    3.4832    1.8463 H   0  0  0  0  0  0  0  0  0  0  0  0
   -2.7865    8.6650   -3.1459 H   0  0  0  0  0  0  0  0  0  0  0  0
  1  2  2  0  0  0  0
  1  6  1  0  0  0  0
  1 31  1  0  0  0  0
  2  3  1  0  0  0  0
  2 32  1  0  0  0  0
  3  4  2  0  0  0  0
  3 33  1  0  0  0  0
  4  5  1  0  0  0  0
  4 34  1  0  0  0  0
  5  6  2  0  0  0  0
  5 35  1  0  0  0  0
  6  7  1  0  0  0  0
  7  8  2  0  0  0  0
  7  9  1  0  0  0  0
  9 10  1  0  0  0  0
  9 15  1  0  0  0  0
 10 11  1  0  0  0  0
 10 36  1  0  0  0  0
 10 37  1  0  0  0  0
 11 12  1  0  0  0  0
 11 38  1  0  0  0  0
 11 39  1  0  0  0  0
 12 13  1  0  0  0  0
 12 40  1  0  0  0  0
 12 41  1  0  0  0  0
 13 14  1  0  0  0  0
 13 42  1  0  0  0  0
 13 43  1  0  0  0  0
 14 15  1  0  0  0  0
 14 44  1  0  0  0  0
 14 45  1  0  0  0  0
 15 16  1  0  0  0  0
 16 17  2  0  0  0  0
 16 18  1  0  0  0  0
 18 19  1  0  0  0  0
 18 46  1  0  0  0  0
 18 47  1  0  0  0  0
 19 20  1  0  0  0  0
 19 21  1  0  0  0  0
 19 48  1  1  0  0  0
 20 49  1  0  0  0  0
 20 50  1  0  0  0  0
 20 55  1  0  0  0  0
 21 22  1  0  0  0  0
 21 51  1  0  0  0  0
 21 52  1  0  0  0  0
 22 23  2  0  0  0  0
 22 29  1  0  0  0  0
 23 24  1  0  0  0  0
 23 53  1  0  0  0  0
 24 25  1  0  0  0  0
 24 26  2  0  0  0  0
 26 27  1  0  0  0  0
 26 28  1  0  0  0  0
 28 29  2  0  0  0  0
 28 54  1  0  0  0  0
 29 30  1  0  0  0  0
M  CHG  1  20   1
M  END
$$$$
