L4G
 OpenBabel04051917213D

 69 73  0  0  0  0  0  0  0  0999 V2000
   32.2666    0.4226   28.2103 C   0  0  0  0  0  0  0  0  0  0  0  0
   29.9021    1.2907   28.2377 C   0  0  0  0  0  0  0  0  0  0  0  0
   27.9660   -0.0569   27.6405 C   0  0  0  0  0  0  0  0  0  0  0  0
   28.2094   -2.3820   26.9885 C   0  0  0  0  0  0  0  0  0  0  0  0
   32.9360    1.5570   27.7183 C   0  0  0  0  0  0  0  0  0  0  0  0
   26.5752   -0.1838   27.4722 C   0  0  0  0  0  0  0  0  0  0  0  0
   32.5959   -3.1374   25.8033 C   0  0  0  0  0  0  0  0  0  0  0  0
   34.3208    1.7345   27.9062 C   0  0  0  0  0  0  0  0  0  0  0  0
   33.2457   -3.2768   24.5629 C   0  0  0  0  0  0  0  0  0  0  0  0
   31.9790   -1.4210   23.7160 C   0  0  0  0  0  0  0  0  0  0  0  0
   35.0795    0.7765   28.5924 C   0  0  0  0  0  0  0  0  0  0  0  0
   32.9369   -2.4176   23.5097 C   0  0  0  0  0  0  0  0  0  0  0  0
   30.2311   -0.9901   27.5457 C   0  0  0  0  0  0  0  0  0  0  0  0
   30.8006    0.2292   28.0000 C   0  0  0  0  0  0  0  0  0  0  0  0
   28.8170   -1.1613   27.3894 C   0  0  0  0  0  0  0  0  0  0  0  0
   31.0574   -2.0751   27.2589 O   0  0  0  0  0  0  0  0  0  0  0  0
   31.6370   -2.1379   26.0050 C   0  0  0  0  0  0  0  0  0  0  0  0
   33.0450   -0.5058   28.9294 C   0  0  0  0  0  0  0  0  0  0  0  0
   28.5246    1.1527   28.0536 C   0  0  0  0  0  0  0  0  0  0  0  0
   26.8223   -2.4904   26.8118 C   0  0  0  0  0  0  0  0  0  0  0  0
   31.3252   -1.2886   24.9452 C   0  0  0  0  0  0  0  0  0  0  0  0
   34.4350   -0.3397   29.1215 C   0  0  0  0  0  0  0  0  0  0  0  0
   26.0228   -1.3833   27.0471 C   0  0  0  0  0  0  0  0  0  0  0  0
   24.6754   -1.4356   26.8662 O   0  0  0  0  0  0  0  0  0  0  0  0
   36.7917    1.1430   28.9971 S   0  0  0  0  0  0  0  0  0  0  0  0
   33.4955   -2.4145   22.2623 O   0  0  0  0  0  0  0  0  0  0  0  0
   37.8719   -0.1733   28.5082 C   0  0  0  0  0  0  0  0  0  0  0  0
   36.8433    1.2305   30.4380 O   0  0  0  0  0  0  0  0  0  0  0  0
   37.1632    2.2864   28.1732 O   0  0  0  0  0  0  0  0  0  0  0  0
   34.2114   -3.5617   21.8118 C   0  0  0  0  0  0  0  0  0  0  0  0
   33.2767   -4.5890   21.1560 C   0  0  0  0  0  0  0  0  0  0  0  0
   32.5397   -4.0965   19.9139 N   0  3  0  0  0  0  0  0  0  0  0  0
   33.4285   -3.4560   18.8771 C   0  0  0  0  0  0  0  0  0  0  0  0
   31.3417   -3.2222   20.2162 C   0  0  0  0  0  0  0  0  0  0  0  0
   32.6438   -3.3111   17.5818 C   0  0  0  0  0  0  0  0  0  0  0  0
   30.5237   -3.0444   18.9405 C   0  0  0  0  0  0  0  0  0  0  0  0
   31.3685   -2.4987   17.7905 C   0  0  0  0  0  0  0  0  0  0  0  0
   30.2723    2.2550   28.5861 H   0  0  0  0  0  0  0  0  0  0  0  0
   28.8215   -3.2599   26.8263 H   0  0  0  0  0  0  0  0  0  0  0  0
   32.3830    2.3336   27.1899 H   0  0  0  0  0  0  0  0  0  0  0  0
   25.9084    0.6564   27.6625 H   0  0  0  0  0  0  0  0  0  0  0  0
   32.8597   -3.8088   26.6191 H   0  0  0  0  0  0  0  0  0  0  0  0
   34.7802    2.6555   27.5492 H   0  0  0  0  0  0  0  0  0  0  0  0
   34.0045   -4.0467   24.4847 H   0  0  0  0  0  0  0  0  0  0  0  0
   31.7319   -0.7214   22.9209 H   0  0  0  0  0  0  0  0  0  0  0  0
   32.5557   -1.3688   29.3801 H   0  0  0  0  0  0  0  0  0  0  0  0
   27.8769    2.0175   28.2516 H   0  0  0  0  0  0  0  0  0  0  0  0
   26.3784   -3.4386   26.5215 H   0  0  0  0  0  0  0  0  0  0  0  0
   30.5820   -0.5052   25.0554 H   0  0  0  0  0  0  0  0  0  0  0  0
   34.9700   -1.0626   29.7313 H   0  0  0  0  0  0  0  0  0  0  0  0
   24.5080   -1.8734   26.0139 H   0  0  0  0  0  0  0  0  0  0  0  0
   38.8921    0.1534   28.7536 H   0  0  0  0  0  0  0  0  0  0  0  0
   37.8285   -0.3511   27.4324 H   0  0  0  0  0  0  0  0  0  0  0  0
   37.6670   -1.0823   29.0761 H   0  0  0  0  0  0  0  0  0  0  0  0
   34.7978   -4.0343   22.6044 H   0  0  0  0  0  0  0  0  0  0  0  0
   34.9581   -3.2165   21.0871 H   0  0  0  0  0  0  0  0  0  0  0  0
   32.5065   -4.9271   21.8562 H   0  0  0  0  0  0  0  0  0  0  0  0
   33.8533   -5.4611   20.8289 H   0  0  0  0  0  0  0  0  0  0  0  0
   34.3014   -4.1014   18.7400 H   0  0  0  0  0  0  0  0  0  0  0  0
   33.7420   -2.4792   19.2610 H   0  0  0  0  0  0  0  0  0  0  0  0
   31.7049   -2.2583   20.5792 H   0  0  0  0  0  0  0  0  0  0  0  0
   30.7491   -3.7191   20.9907 H   0  0  0  0  0  0  0  0  0  0  0  0
   32.3877   -4.3035   17.1903 H   0  0  0  0  0  0  0  0  0  0  0  0
   33.2720   -2.8228   16.8285 H   0  0  0  0  0  0  0  0  0  0  0  0
   29.6907   -2.3595   19.1366 H   0  0  0  0  0  0  0  0  0  0  0  0
   30.0821   -4.0045   18.6457 H   0  0  0  0  0  0  0  0  0  0  0  0
   30.7789   -2.4905   16.8668 H   0  0  0  0  0  0  0  0  0  0  0  0
   31.6379   -1.4575   18.0062 H   0  0  0  0  0  0  0  0  0  0  0  0
   32.1595   -4.9516   19.4857 H   0  0  0  0  0  0  0  0  0  0  0  0
  1  5  2  0  0  0  0
  1 14  1  0  0  0  0
  1 18  1  0  0  0  0
  2 14  2  0  0  0  0
  2 19  1  0  0  0  0
  2 38  1  0  0  0  0
  3  6  1  0  0  0  0
  3 15  1  0  0  0  0
  3 19  2  0  0  0  0
  4 15  1  0  0  0  0
  4 20  2  0  0  0  0
  4 39  1  0  0  0  0
  5  8  1  0  0  0  0
  5 40  1  0  0  0  0
  6 23  2  0  0  0  0
  6 41  1  0  0  0  0
  7  9  2  0  0  0  0
  7 17  1  0  0  0  0
  7 42  1  0  0  0  0
  8 11  2  0  0  0  0
  8 43  1  0  0  0  0
  9 12  1  0  0  0  0
  9 44  1  0  0  0  0
 10 12  2  0  0  0  0
 10 21  1  0  0  0  0
 10 45  1  0  0  0  0
 11 22  1  0  0  0  0
 11 25  1  0  0  0  0
 12 26  1  0  0  0  0
 13 14  1  0  0  0  0
 13 15  2  0  0  0  0
 13 16  1  0  0  0  0
 16 17  1  0  0  0  0
 17 21  2  0  0  0  0
 18 22  2  0  0  0  0
 18 46  1  0  0  0  0
 19 47  1  0  0  0  0
 20 23  1  0  0  0  0
 20 48  1  0  0  0  0
 21 49  1  0  0  0  0
 22 50  1  0  0  0  0
 23 24  1  0  0  0  0
 24 51  1  0  0  0  0
 25 27  1  0  0  0  0
 25 28  2  0  0  0  0
 25 29  2  0  0  0  0
 26 30  1  0  0  0  0
 27 52  1  0  0  0  0
 27 53  1  0  0  0  0
 27 54  1  0  0  0  0
 30 31  1  0  0  0  0
 30 55  1  0  0  0  0
 30 56  1  0  0  0  0
 31 32  1  0  0  0  0
 31 57  1  0  0  0  0
 31 58  1  0  0  0  0
 32 33  1  0  0  0  0
 32 34  1  0  0  0  0
 32 69  1  0  0  0  0
 33 35  1  0  0  0  0
 33 59  1  0  0  0  0
 33 60  1  0  0  0  0
 34 36  1  0  0  0  0
 34 61  1  0  0  0  0
 34 62  1  0  0  0  0
 35 37  1  0  0  0  0
 35 63  1  0  0  0  0
 35 64  1  0  0  0  0
 36 37  1  0  0  0  0
 36 65  1  0  0  0  0
 36 66  1  0  0  0  0
 37 67  1  0  0  0  0
 37 68  1  0  0  0  0
M  CHG  1  32   1
M  END
$$$$
