L81
 OpenBabel04051920293D

 43 46  0  0  0  0  0  0  0  0999 V2000
    1.7022   -1.4279   -3.0083 C   0  0  0  0  0  0  0  0  0  0  0  0
    1.8276    0.6365   -4.4405 C   0  0  0  0  0  0  0  0  0  0  0  0
    0.9023   -0.2763   -3.6319 C   0  0  0  0  0  0  0  0  0  0  0  0
    0.1311    0.5219   -2.5347 C   0  0  0  0  0  0  0  0  0  0  0  0
   -0.2410   -0.8283   -4.4395 C   0  0  0  0  0  0  0  0  0  0  0  0
   -0.2311   -1.4638   -5.6752 C   0  0  0  0  0  0  0  0  0  0  0  0
   -1.4394   -1.9410   -6.1911 C   0  0  0  0  0  0  0  0  0  0  0  0
   -1.4264   -2.6009   -7.5230 C   0  0  0  0  0  0  0  0  0  0  0  0
   -1.6104   -3.8136   -7.6000 O   0  0  0  0  0  0  0  0  0  0  0  0
   -1.1406   -1.8098   -8.6239 N   0  0  0  0  0  0  0  0  0  0  0  0
   -1.1456   -2.3638   -9.9775 C   0  0  0  0  0  0  0  0  0  0  0  0
   -1.3724   -1.1586  -10.8409 C   0  0  0  0  0  0  0  0  0  0  0  0
   -1.6158   -1.0838  -12.2070 C   0  0  0  0  0  0  0  0  0  0  0  0
   -1.8233    0.1702  -12.7741 C   0  0  0  0  0  0  0  0  0  0  0  0
   -1.7935    1.3318  -11.9884 C   0  0  0  0  0  0  0  0  0  0  0  0
   -1.5361    1.2515  -10.6140 C   0  0  0  0  0  0  0  0  0  0  0  0
   -1.3351    0.0034  -10.0564 C   0  0  0  0  0  0  0  0  0  0  0  0
   -1.0704   -0.3504   -8.6289 C   0  0  0  0  0  0  0  0  0  0  0  0
   -2.6288   -1.8169   -5.4461 C   0  0  0  0  0  0  0  0  0  0  0  0
   -3.8118   -2.2535   -5.9715 O   0  0  0  0  0  0  0  0  0  0  0  0
   -2.6253   -1.1815   -4.1939 C   0  0  0  0  0  0  0  0  0  0  0  0
   -1.4277   -0.6901   -3.7050 C   0  0  0  0  0  0  0  0  0  0  0  0
   -1.2823    0.1338   -2.5818 N   0  0  0  0  0  0  0  0  0  0  0  0
    2.5273   -1.0484   -2.3961 H   0  0  0  0  0  0  0  0  0  0  0  0
    2.1291   -2.0802   -3.7798 H   0  0  0  0  0  0  0  0  0  0  0  0
    1.0725   -2.0547   -2.3651 H   0  0  0  0  0  0  0  0  0  0  0  0
    1.2778    1.4725   -4.8903 H   0  0  0  0  0  0  0  0  0  0  0  0
    2.3167    0.0926   -5.2556 H   0  0  0  0  0  0  0  0  0  0  0  0
    2.6123    1.0574   -3.8042 H   0  0  0  0  0  0  0  0  0  0  0  0
    0.1630    1.5984   -2.7446 H   0  0  0  0  0  0  0  0  0  0  0  0
    0.5561    0.3771   -1.5370 H   0  0  0  0  0  0  0  0  0  0  0  0
    0.6950   -1.5842   -6.2311 H   0  0  0  0  0  0  0  0  0  0  0  0
   -1.9369   -3.1109  -10.0883 H   0  0  0  0  0  0  0  0  0  0  0  0
   -0.1632   -2.8046  -10.1800 H   0  0  0  0  0  0  0  0  0  0  0  0
   -1.6477   -1.9826  -12.8179 H   0  0  0  0  0  0  0  0  0  0  0  0
   -2.0274    0.2555  -13.8408 H   0  0  0  0  0  0  0  0  0  0  0  0
   -1.9583    2.3038  -12.4468 H   0  0  0  0  0  0  0  0  0  0  0  0
   -1.5179    2.1510  -10.0030 H   0  0  0  0  0  0  0  0  0  0  0  0
   -0.0583   -0.0451   -8.3397 H   0  0  0  0  0  0  0  0  0  0  0  0
   -1.8170    0.0781   -7.9602 H   0  0  0  0  0  0  0  0  0  0  0  0
   -4.5094   -2.1693   -5.3022 H   0  0  0  0  0  0  0  0  0  0  0  0
   -3.5369   -1.0466   -3.6267 H   0  0  0  0  0  0  0  0  0  0  0  0
   -1.7689   -0.1279   -1.7273 H   0  0  0  0  0  0  0  0  0  0  0  0
  1  3  1  0  0  0  0
  1 24  1  0  0  0  0
  1 25  1  0  0  0  0
  1 26  1  0  0  0  0
  2  3  1  0  0  0  0
  2 27  1  0  0  0  0
  2 28  1  0  0  0  0
  2 29  1  0  0  0  0
  3  4  1  0  0  0  0
  3  5  1  0  0  0  0
  4 23  1  0  0  0  0
  4 30  1  0  0  0  0
  4 31  1  0  0  0  0
  5  6  2  0  0  0  0
  5 22  1  0  0  0  0
  6  7  1  0  0  0  0
  6 32  1  0  0  0  0
  7  8  1  0  0  0  0
  7 19  2  0  0  0  0
  8  9  2  0  0  0  0
  8 10  1  0  0  0  0
 10 11  1  0  0  0  0
 10 18  1  0  0  0  0
 11 12  1  0  0  0  0
 11 33  1  0  0  0  0
 11 34  1  0  0  0  0
 12 13  2  0  0  0  0
 12 17  1  0  0  0  0
 13 14  1  0  0  0  0
 13 35  1  0  0  0  0
 14 15  2  0  0  0  0
 14 36  1  0  0  0  0
 15 16  1  0  0  0  0
 15 37  1  0  0  0  0
 16 17  2  0  0  0  0
 16 38  1  0  0  0  0
 17 18  1  0  0  0  0
 18 39  1  0  0  0  0
 18 40  1  0  0  0  0
 19 20  1  0  0  0  0
 19 21  1  0  0  0  0
 20 41  1  0  0  0  0
 21 22  2  0  0  0  0
 21 42  1  0  0  0  0
 22 23  1  0  0  0  0
 23 43  1  0  0  0  0
M  END
$$$$
