LOG
 OpenBabel04051920313D

 30 30  0  0  1  0  0  0  0  0999 V2000
    7.9460  -11.4297    3.7159 C   0  0  1  0  0  0  0  0  0  0  0  0
    7.6321  -10.4042    2.6437 C   0  0  2  0  0  0  0  0  0  0  0  0
    6.7463  -11.0291    1.5594 C   0  0  1  0  0  0  0  0  0  0  0  0
    5.4452  -11.4537    2.2302 C   0  0  1  0  0  0  0  0  0  0  0  0
    4.4046  -11.9662    1.2211 C   0  0  0  0  0  0  0  0  0  0  0  0
    7.2258  -10.3263    5.8240 C   0  0  0  0  0  0  0  0  0  0  0  0
    7.6055   -9.7233    7.1515 C   0  0  0  0  0  0  0  0  0  0  0  0
    8.2456  -10.8378    5.0531 N   0  0  0  0  0  0  0  0  0  0  0  0
    6.1285  -14.3243    4.9048 O   0  0  0  0  0  0  0  0  0  0  0  0
    8.8817   -9.9678    2.0788 O   0  0  0  0  0  0  0  0  0  0  0  0
    6.5203  -10.0636    0.5371 O   0  0  0  0  0  0  0  0  0  0  0  0
    5.7434  -12.5144    3.1631 O   0  0  0  0  0  0  0  0  0  0  0  0
    4.8989  -13.1149    0.5346 O   0  0  0  0  0  0  0  0  0  0  0  0
    6.8847  -12.5166    3.8789 C   0  0  0  0  0  0  0  0  0  0  0  0
    6.0568  -10.3484    5.4450 O   0  0  0  0  0  0  0  0  0  0  0  0
    7.1717  -13.4369    4.7237 N   0  0  0  0  0  0  0  0  0  0  0  0
    8.8644  -11.9577    3.4284 H   0  0  0  0  0  0  0  0  0  0  0  0
    7.1383   -9.5209    3.0645 H   0  0  0  0  0  0  0  0  0  0  0  0
    7.2566  -11.9020    1.1229 H   0  0  0  0  0  0  0  0  0  0  0  0
    4.9894  -10.6215    2.7789 H   0  0  0  0  0  0  0  0  0  0  0  0
    4.1731  -11.2037    0.4694 H   0  0  0  0  0  0  0  0  0  0  0  0
    3.4583  -12.2329    1.7023 H   0  0  0  0  0  0  0  0  0  0  0  0
    6.6918   -9.3622    7.6432 H   0  0  0  0  0  0  0  0  0  0  0  0
    8.2681   -8.8684    7.0020 H   0  0  0  0  0  0  0  0  0  0  0  0
    8.0738  -10.4593    7.8085 H   0  0  0  0  0  0  0  0  0  0  0  0
    9.1979  -10.8644    5.4008 H   0  0  0  0  0  0  0  0  0  0  0  0
    6.4518  -14.8680    5.6421 H   0  0  0  0  0  0  0  0  0  0  0  0
    8.6567   -9.3542    1.3562 H   0  0  0  0  0  0  0  0  0  0  0  0
    5.9574  -10.4909   -0.1358 H   0  0  0  0  0  0  0  0  0  0  0  0
    5.0752  -13.7890    1.2213 H   0  0  0  0  0  0  0  0  0  0  0  0
  1  2  1  0  0  0  0
  1  8  1  0  0  0  0
  1 14  1  0  0  0  0
  1 17  1  6  0  0  0
  2  3  1  0  0  0  0
  2 10  1  0  0  0  0
  2 18  1  1  0  0  0
  3  4  1  0  0  0  0
  3 11  1  0  0  0  0
  3 19  1  6  0  0  0
  4  5  1  0  0  0  0
  4 12  1  0  0  0  0
  4 20  1  1  0  0  0
  5 13  1  0  0  0  0
  5 21  1  0  0  0  0
  5 22  1  0  0  0  0
  6  7  1  0  0  0  0
  6  8  1  0  0  0  0
  6 15  2  0  0  0  0
  7 23  1  0  0  0  0
  7 24  1  0  0  0  0
  7 25  1  0  0  0  0
  8 26  1  0  0  0  0
  9 16  1  0  0  0  0
  9 27  1  0  0  0  0
 10 28  1  0  0  0  0
 11 29  1  0  0  0  0
 12 14  1  0  0  0  0
 13 30  1  0  0  0  0
 14 16  2  0  0  0  0
M  END
$$$$
