LP1
 OpenBabel04051917573D

116119  0  0  1  0  0  0  0  0999 V2000
    7.6718   20.7161    7.1535 C   0  0  0  0  0  0  0  0  0  0  0  0
    6.8631   21.0056    5.9210 C   0  0  0  0  0  0  0  0  0  0  0  0
    6.4678   22.1293    5.6340 O   0  0  0  0  0  0  0  0  0  0  0  0
    6.6313   19.9006    5.1418 N   0  0  0  0  0  0  0  0  0  0  0  0
    5.8081   19.9947    3.9522 C   0  0  1  0  0  0  0  0  0  0  0  0
    6.4736   19.4141    2.7086 C   0  0  0  0  0  0  0  0  0  0  0  0
    7.5120   20.2903    2.0712 C   0  0  0  0  0  0  0  0  0  0  0  0
    7.5554   21.6550    2.3511 C   0  0  0  0  0  0  0  0  0  0  0  0
    8.5222   22.4761    1.8013 C   0  0  0  0  0  0  0  0  0  0  0  0
    9.4607   21.9472    0.9314 C   0  0  0  0  0  0  0  0  0  0  0  0
    8.4508   19.7470    1.1832 C   0  0  0  0  0  0  0  0  0  0  0  0
    9.4380   20.5862    0.6157 C   0  0  0  0  0  0  0  0  0  0  0  0
    8.4458   18.3809    0.8661 C   0  0  0  0  0  0  0  0  0  0  0  0
   10.3925   20.0395   -0.2437 C   0  0  0  0  0  0  0  0  0  0  0  0
    9.3801   17.8588   -0.0064 C   0  0  0  0  0  0  0  0  0  0  0  0
   10.3492   18.6871   -0.5596 C   0  0  0  0  0  0  0  0  0  0  0  0
    4.5635   19.1504    4.1219 C   0  0  0  0  0  0  0  0  0  0  0  0
    4.6110   17.9872    4.5024 O   0  0  0  0  0  0  0  0  0  0  0  0
    3.4464   19.7655    3.6004 N   0  0  0  0  0  0  0  0  0  0  0  0
    2.1530   19.1352    3.4597 C   0  0  2  0  0  0  0  0  0  0  0  0
    1.6423   19.4738    2.0502 C   0  0  0  0  0  0  0  0  0  0  0  0
    1.3406   20.6002    1.6892 O   0  0  0  0  0  0  0  0  0  0  0  0
    1.1372   19.5880    4.5171 C   0  0  0  0  0  0  0  0  0  0  0  0
   -0.2354   19.0120    4.1848 C   0  0  0  0  0  0  0  0  0  0  0  0
    1.4846   18.9968    5.8761 C   0  0  0  0  0  0  0  0  0  0  0  0
    1.6278   18.3650    1.2345 N   0  0  0  0  0  0  0  0  0  0  0  0
    1.3170   18.4113   -0.1863 C   0  0  1  0  0  0  0  0  0  0  0  0
    2.5904   18.0325   -0.9725 C   0  0  0  0  0  0  0  0  0  0  0  0
    3.7748   18.9443   -0.5663 C   0  0  0  0  0  0  0  0  0  0  0  0
    5.1089   18.3523   -0.9717 C   0  0  0  0  0  0  0  0  0  0  0  0
    3.5753   20.3352   -1.1409 C   0  0  0  0  0  0  0  0  0  0  0  0
    0.0700   17.5447   -0.4985 C   0  0  2  0  0  0  0  0  0  0  0  0
   -1.2387   18.3126   -0.2652 C   0  0  0  0  0  0  0  0  0  0  0  0
    0.0340   16.3570    0.3225 O   0  0  0  0  0  0  0  0  0  0  0  0
   -1.5220   19.3986   -1.2906 C   0  0  0  0  0  0  0  0  0  0  0  0
   -1.0380   20.5256   -1.2758 O   0  0  0  0  0  0  0  0  0  0  0  0
   -2.3872   18.9499   -2.2528 N   0  0  0  0  0  0  0  0  0  0  0  0
   -2.7396   19.7243   -3.4326 C   0  0  1  0  0  0  0  0  0  0  0  0
   -1.7581   19.3466   -4.5398 C   0  0  0  0  0  0  0  0  0  0  0  0
   -1.8816   20.1205   -5.8321 C   0  0  0  0  0  0  0  0  0  0  0  0
   -4.1447   19.2947   -3.8268 C   0  0  0  0  0  0  0  0  0  0  0  0
   -4.4681   18.1031   -3.8837 O   0  0  0  0  0  0  0  0  0  0  0  0
   -5.0289   20.2971   -4.1100 N   0  0  0  0  0  0  0  0  0  0  0  0
   -6.4089   19.9970   -4.4823 C   0  0  1  0  0  0  0  0  0  0  0  0
   -7.4729   20.2244   -3.3914 C   0  0  0  0  0  0  0  0  0  0  0  0
   -7.0743   21.2294   -2.3319 C   0  0  0  0  0  0  0  0  0  0  0  0
   -7.4839   22.5594   -2.4555 C   0  0  0  0  0  0  0  0  0  0  0  0
   -7.0938   23.5155   -1.5180 C   0  0  0  0  0  0  0  0  0  0  0  0
   -6.2686   23.1656   -0.4546 C   0  0  0  0  0  0  0  0  0  0  0  0
   -6.2409   20.8677   -1.2545 C   0  0  0  0  0  0  0  0  0  0  0  0
   -5.8294   21.8458   -0.3136 C   0  0  0  0  0  0  0  0  0  0  0  0
   -5.7901   19.5506   -1.0996 C   0  0  0  0  0  0  0  0  0  0  0  0
   -4.9863   21.4798    0.7417 C   0  0  0  0  0  0  0  0  0  0  0  0
   -4.9423   19.2022   -0.0638 C   0  0  0  0  0  0  0  0  0  0  0  0
   -4.5433   20.1640    0.8535 C   0  0  0  0  0  0  0  0  0  0  0  0
   -6.7793   20.7023   -5.7650 C   0  0  0  0  0  0  0  0  0  0  0  0
   -6.2855   21.7994   -6.1126 O   0  0  0  0  0  0  0  0  0  0  0  0
   -7.7235   20.1052   -6.5431 N   0  0  0  0  0  0  0  0  0  0  0  0
    7.9254   19.6535    7.2173 H   0  0  0  0  0  0  0  0  0  0  0  0
    7.0871   20.9892    8.0343 H   0  0  0  0  0  0  0  0  0  0  0  0
    8.5986   21.2948    7.1253 H   0  0  0  0  0  0  0  0  0  0  0  0
    6.9436   18.9844    5.4447 H   0  0  0  0  0  0  0  0  0  0  0  0
    5.5136   21.0344    3.7951 H   0  0  0  0  0  0  0  0  0  0  0  0
    5.7115   19.1904    1.9495 H   0  0  0  0  0  0  0  0  0  0  0  0
    6.9412   18.4676    3.0067 H   0  0  0  0  0  0  0  0  0  0  0  0
    6.8505   22.1099    3.0334 H   0  0  0  0  0  0  0  0  0  0  0  0
    8.5329   23.5263    2.0677 H   0  0  0  0  0  0  0  0  0  0  0  0
   10.2108   22.6046    0.5051 H   0  0  0  0  0  0  0  0  0  0  0  0
    7.7152   17.7040    1.2983 H   0  0  0  0  0  0  0  0  0  0  0  0
   11.1805   20.6550   -0.6698 H   0  0  0  0  0  0  0  0  0  0  0  0
    9.3537   16.8041   -0.2540 H   0  0  0  0  0  0  0  0  0  0  0  0
   11.0742   18.2625   -1.2419 H   0  0  0  0  0  0  0  0  0  0  0  0
    3.5455   20.7098    3.2459 H   0  0  0  0  0  0  0  0  0  0  0  0
    2.2770   18.0517    3.5538 H   0  0  0  0  0  0  0  0  0  0  0  0
    1.0851   20.6852    4.5758 H   0  0  0  0  0  0  0  0  0  0  0  0
   -0.9692   19.3179    4.9348 H   0  0  0  0  0  0  0  0  0  0  0  0
   -0.1789   17.9154    4.1865 H   0  0  0  0  0  0  0  0  0  0  0  0
   -0.5797   19.3398    3.2049 H   0  0  0  0  0  0  0  0  0  0  0  0
    2.4509   19.3526    6.2280 H   0  0  0  0  0  0  0  0  0  0  0  0
    1.5165   17.9015    5.8007 H   0  0  0  0  0  0  0  0  0  0  0  0
    0.7156   19.2560    6.6119 H   0  0  0  0  0  0  0  0  0  0  0  0
    2.0348   17.5153    1.6005 H   0  0  0  0  0  0  0  0  0  0  0  0
    1.0588   19.4337   -0.4593 H   0  0  0  0  0  0  0  0  0  0  0  0
    2.3973   18.1440   -2.0495 H   0  0  0  0  0  0  0  0  0  0  0  0
    2.8595   16.9856   -0.7917 H   0  0  0  0  0  0  0  0  0  0  0  0
    3.8267   19.0474    0.5201 H   0  0  0  0  0  0  0  0  0  0  0  0
    5.9282   19.0146   -0.6710 H   0  0  0  0  0  0  0  0  0  0  0  0
    5.1543   18.1975   -2.0512 H   0  0  0  0  0  0  0  0  0  0  0  0
    5.2448   17.3908   -0.4638 H   0  0  0  0  0  0  0  0  0  0  0  0
    2.6096   20.7314   -0.8176 H   0  0  0  0  0  0  0  0  0  0  0  0
    3.5869   20.3065   -2.2339 H   0  0  0  0  0  0  0  0  0  0  0  0
    4.3492   21.0221   -0.7889 H   0  0  0  0  0  0  0  0  0  0  0  0
    0.1112   17.2116   -1.5387 H   0  0  0  0  0  0  0  0  0  0  0  0
   -1.2572   18.7551    0.7325 H   0  0  0  0  0  0  0  0  0  0  0  0
   -2.0678   17.5864   -0.2913 H   0  0  0  0  0  0  0  0  0  0  0  0
   -0.0943   16.6384    1.2477 H   0  0  0  0  0  0  0  0  0  0  0  0
   -2.7533   18.0063   -2.1814 H   0  0  0  0  0  0  0  0  0  0  0  0
   -2.7207   20.7886   -3.1994 H   0  0  0  0  0  0  0  0  0  0  0  0
   -1.8740   18.2815   -4.7776 H   0  0  0  0  0  0  0  0  0  0  0  0
   -0.7447   19.4976   -4.1553 H   0  0  0  0  0  0  0  0  0  0  0  0
   -1.1149   19.7693   -6.5341 H   0  0  0  0  0  0  0  0  0  0  0  0
   -1.7262   21.1877   -5.6591 H   0  0  0  0  0  0  0  0  0  0  0  0
   -2.8604   19.9643   -6.2919 H   0  0  0  0  0  0  0  0  0  0  0  0
   -4.7587   21.2726   -4.0102 H   0  0  0  0  0  0  0  0  0  0  0  0
   -6.4456   18.9329   -4.7245 H   0  0  0  0  0  0  0  0  0  0  0  0
   -7.6843   19.2575   -2.9101 H   0  0  0  0  0  0  0  0  0  0  0  0
   -8.4317   20.5186   -3.8349 H   0  0  0  0  0  0  0  0  0  0  0  0
   -8.1081   22.8556   -3.2932 H   0  0  0  0  0  0  0  0  0  0  0  0
   -7.4303   24.5433   -1.6204 H   0  0  0  0  0  0  0  0  0  0  0  0
   -5.9644   23.9290    0.2591 H   0  0  0  0  0  0  0  0  0  0  0  0
   -6.0731   18.7761   -1.8071 H   0  0  0  0  0  0  0  0  0  0  0  0
   -4.6629   22.2106    1.4797 H   0  0  0  0  0  0  0  0  0  0  0  0
   -4.5948   18.1792    0.0213 H   0  0  0  0  0  0  0  0  0  0  0  0
   -3.8804   19.8790    1.6611 H   0  0  0  0  0  0  0  0  0  0  0  0
   -7.9767   20.5359   -7.4237 H   0  0  0  0  0  0  0  0  0  0  0  0
   -8.1424   19.2201   -6.2897 H   0  0  0  0  0  0  0  0  0  0  0  0
  1  2  1  0  0  0  0
  1 59  1  0  0  0  0
  1 60  1  0  0  0  0
  1 61  1  0  0  0  0
  2  3  2  0  0  0  0
  2  4  1  0  0  0  0
  4  5  1  0  0  0  0
  4 62  1  0  0  0  0
  5  6  1  0  0  0  0
  5 17  1  0  0  0  0
  5 63  1  6  0  0  0
  6  7  1  0  0  0  0
  6 64  1  0  0  0  0
  6 65  1  0  0  0  0
  7  8  2  0  0  0  0
  7 11  1  0  0  0  0
  8  9  1  0  0  0  0
  8 66  1  0  0  0  0
  9 10  2  0  0  0  0
  9 67  1  0  0  0  0
 10 12  1  0  0  0  0
 10 68  1  0  0  0  0
 11 12  2  0  0  0  0
 11 13  1  0  0  0  0
 12 14  1  0  0  0  0
 13 15  2  0  0  0  0
 13 69  1  0  0  0  0
 14 16  2  0  0  0  0
 14 70  1  0  0  0  0
 15 16  1  0  0  0  0
 15 71  1  0  0  0  0
 16 72  1  0  0  0  0
 17 18  2  0  0  0  0
 17 19  1  0  0  0  0
 19 20  1  0  0  0  0
 19 73  1  0  0  0  0
 20 21  1  0  0  0  0
 20 23  1  0  0  0  0
 20 74  1  1  0  0  0
 21 22  2  0  0  0  0
 21 26  1  0  0  0  0
 23 24  1  0  0  0  0
 23 25  1  0  0  0  0
 23 75  1  0  0  0  0
 24 76  1  0  0  0  0
 24 77  1  0  0  0  0
 24 78  1  0  0  0  0
 25 79  1  0  0  0  0
 25 80  1  0  0  0  0
 25 81  1  0  0  0  0
 26 27  1  0  0  0  0
 26 82  1  0  0  0  0
 27 28  1  0  0  0  0
 27 32  1  0  0  0  0
 27 83  1  6  0  0  0
 28 29  1  0  0  0  0
 28 84  1  0  0  0  0
 28 85  1  0  0  0  0
 29 30  1  0  0  0  0
 29 31  1  0  0  0  0
 29 86  1  0  0  0  0
 30 87  1  0  0  0  0
 30 88  1  0  0  0  0
 30 89  1  0  0  0  0
 31 90  1  0  0  0  0
 31 91  1  0  0  0  0
 31 92  1  0  0  0  0
 32 33  1  0  0  0  0
 32 34  1  0  0  0  0
 32 93  1  6  0  0  0
 33 35  1  0  0  0  0
 33 94  1  0  0  0  0
 33 95  1  0  0  0  0
 34 96  1  0  0  0  0
 35 36  2  0  0  0  0
 35 37  1  0  0  0  0
 37 38  1  0  0  0  0
 37 97  1  0  0  0  0
 38 39  1  0  0  0  0
 38 41  1  0  0  0  0
 38 98  1  1  0  0  0
 39 40  1  0  0  0  0
 39 99  1  0  0  0  0
 39100  1  0  0  0  0
 40101  1  0  0  0  0
 40102  1  0  0  0  0
 40103  1  0  0  0  0
 41 42  2  0  0  0  0
 41 43  1  0  0  0  0
 43 44  1  0  0  0  0
 43104  1  0  0  0  0
 44 45  1  0  0  0  0
 44 56  1  0  0  0  0
 44105  1  6  0  0  0
 45 46  1  0  0  0  0
 45106  1  0  0  0  0
 45107  1  0  0  0  0
 46 47  2  0  0  0  0
 46 50  1  0  0  0  0
 47 48  1  0  0  0  0
 47108  1  0  0  0  0
 48 49  2  0  0  0  0
 48109  1  0  0  0  0
 49 51  1  0  0  0  0
 49110  1  0  0  0  0
 50 51  2  0  0  0  0
 50 52  1  0  0  0  0
 51 53  1  0  0  0  0
 52 54  2  0  0  0  0
 52111  1  0  0  0  0
 53 55  2  0  0  0  0
 53112  1  0  0  0  0
 54 55  1  0  0  0  0
 54113  1  0  0  0  0
 55114  1  0  0  0  0
 56 57  2  0  0  0  0
 56 58  1  0  0  0  0
 58115  1  0  0  0  0
 58116  1  0  0  0  0
M  END
$$$$
