LSA
 OpenBabel04051918553D

 17 18  0  0  0  0  0  0  0  0999 V2000
   15.1504    6.7972   15.6155 C   0  0  0  0  0  0  0  0  0  0  0  0
   14.6726    5.7879   16.4623 C   0  0  0  0  0  0  0  0  0  0  0  0
   15.0219    4.4838   16.1634 C   0  0  0  0  0  0  0  0  0  0  0  0
   16.0546    2.7221   14.9512 C   0  0  0  0  0  0  0  0  0  0  0  0
   15.9547    6.4892   14.5017 C   0  0  0  0  0  0  0  0  0  0  0  0
   14.5680    3.0333   17.0323 S   0  0  0  0  0  0  0  0  0  0  0  0
   15.3570    2.0465   15.9473 N   0  0  0  0  0  0  0  0  0  0  0  0
   16.6940    2.1730   14.0781 O   0  0  0  0  0  0  0  0  0  0  0  0
   15.8385    4.1712   15.0833 C   0  0  0  0  0  0  0  0  0  0  0  0
   16.3253    5.1648   14.2407 C   0  0  0  0  0  0  0  0  0  0  0  0
   15.2843    2.9873   18.2822 O   0  0  0  0  0  0  0  0  0  0  0  0
   13.1496    2.8221   16.9047 O   0  0  0  0  0  0  0  0  0  0  0  0
   14.9154    7.8397   15.8292 H   0  0  0  0  0  0  0  0  0  0  0  0
   14.0608    6.0236   17.3271 H   0  0  0  0  0  0  0  0  0  0  0  0
   16.2965    7.2912   13.8476 H   0  0  0  0  0  0  0  0  0  0  0  0
   15.2090    1.0426   15.9088 H   0  0  0  0  0  0  0  0  0  0  0  0
   16.9762    4.9313   13.4012 H   0  0  0  0  0  0  0  0  0  0  0  0
  1  2  2  0  0  0  0
  1  5  1  0  0  0  0
  1 13  1  0  0  0  0
  2  3  1  0  0  0  0
  2 14  1  0  0  0  0
  3  6  1  0  0  0  0
  3  9  2  0  0  0  0
  4  7  1  0  0  0  0
  4  8  2  0  0  0  0
  4  9  1  0  0  0  0
  5 10  2  0  0  0  0
  5 15  1  0  0  0  0
  6  7  1  0  0  0  0
  6 11  2  0  0  0  0
  6 12  2  0  0  0  0
  7 16  1  0  0  0  0
  9 10  1  0  0  0  0
 10 17  1  0  0  0  0
M  END
$$$$
