LTM
 OpenBabel04051920303D

 29 29  0  0  1  0  0  0  0  0999 V2000
    5.9243  -10.4114    5.4600 O   0  0  0  0  0  0  0  0  0  0  0  0
    7.1003  -10.4564    5.8274 C   0  0  0  0  0  0  0  0  0  0  0  0
    7.5378   -9.8349    7.1204 C   0  0  0  0  0  0  0  0  0  0  0  0
    8.0747  -11.0846    5.0932 N   0  0  0  0  0  0  0  0  0  0  0  0
    7.7512  -11.6461    3.7816 C   0  0  2  0  0  0  0  0  0  0  0  0
    7.4973  -10.5720    2.7151 C   0  0  1  0  0  0  0  0  0  0  0  0
    8.7848  -10.1454    2.2214 O   0  0  0  0  0  0  0  0  0  0  0  0
    6.6324  -11.1272    1.5641 C   0  0  2  0  0  0  0  0  0  0  0  0
    6.4579  -10.1388    0.5575 O   0  0  0  0  0  0  0  0  0  0  0  0
    5.3023  -11.5657    2.2007 C   0  0  1  0  0  0  0  0  0  0  0  0
    4.2367  -11.9859    1.1829 C   0  0  0  0  0  0  0  0  0  0  0  0
    4.7224  -13.0867    0.4158 O   0  0  0  0  0  0  0  0  0  0  0  0
    5.6010  -12.7096    3.0523 N   0  0  0  0  0  0  0  0  0  0  0  0
    6.6561  -12.7230    3.9189 C   0  0  0  0  0  0  0  0  0  0  0  0
    6.7404  -13.6526    4.7365 O   0  0  0  0  0  0  0  0  0  0  0  0
    8.6149   -9.9161    7.2739 H   0  0  0  0  0  0  0  0  0  0  0  0
    7.0217  -10.3305    7.9489 H   0  0  0  0  0  0  0  0  0  0  0  0
    7.2607   -8.7759    7.1101 H   0  0  0  0  0  0  0  0  0  0  0  0
    9.0522  -11.0373    5.3685 H   0  0  0  0  0  0  0  0  0  0  0  0
    8.6454  -12.1987    3.4661 H   0  0  0  0  0  0  0  0  0  0  0  0
    7.0085   -9.6811    3.1371 H   0  0  0  0  0  0  0  0  0  0  0  0
    8.6032   -9.4781    1.5349 H   0  0  0  0  0  0  0  0  0  0  0  0
    7.1353  -11.9893    1.1173 H   0  0  0  0  0  0  0  0  0  0  0  0
    5.9544  -10.5641   -0.1638 H   0  0  0  0  0  0  0  0  0  0  0  0
    4.8860  -10.7482    2.8142 H   0  0  0  0  0  0  0  0  0  0  0  0
    3.9749  -11.1648    0.5095 H   0  0  0  0  0  0  0  0  0  0  0  0
    3.3211  -12.3064    1.6962 H   0  0  0  0  0  0  0  0  0  0  0  0
    5.0221  -13.7750    1.0541 H   0  0  0  0  0  0  0  0  0  0  0  0
    4.9042  -13.4324    3.2128 H   0  0  0  0  0  0  0  0  0  0  0  0
  1  2  2  0  0  0  0
  2  3  1  0  0  0  0
  2  4  1  0  0  0  0
  3 16  1  0  0  0  0
  3 17  1  0  0  0  0
  3 18  1  0  0  0  0
  4  5  1  0  0  0  0
  4 19  1  0  0  0  0
  5  6  1  0  0  0  0
  5 14  1  0  0  0  0
  5 20  1  6  0  0  0
  6  7  1  0  0  0  0
  6  8  1  0  0  0  0
  6 21  1  1  0  0  0
  7 22  1  0  0  0  0
  8  9  1  0  0  0  0
  8 10  1  0  0  0  0
  8 23  1  6  0  0  0
  9 24  1  0  0  0  0
 10 11  1  0  0  0  0
 10 13  1  0  0  0  0
 10 25  1  1  0  0  0
 11 12  1  0  0  0  0
 11 26  1  0  0  0  0
 11 27  1  0  0  0  0
 12 28  1  0  0  0  0
 13 14  1  0  0  0  0
 13 29  1  0  0  0  0
 14 15  2  0  0  0  0
M  END
$$$$
