LYS
 OpenBabel04051918523D

 25 24  0  0  1  0  0  0  0  0999 V2000
  -13.9939   22.9114   12.8618 N   0  3  0  0  0  0  0  0  0  0  0  0
  -13.0797   23.8980   13.5488 C   0  0  2  0  0  0  0  0  0  0  0  0
  -12.3893   24.8521   12.5249 C   0  0  0  0  0  0  0  0  0  0  0  0
  -11.6758   25.7608   13.0112 O   0  0  0  0  0  0  0  0  0  0  0  0
  -12.0025   23.1260   14.3247 C   0  0  0  0  0  0  0  0  0  0  0  0
  -11.1287   22.2291   13.4365 C   0  0  0  0  0  0  0  0  0  0  0  0
   -9.7964   21.8624   14.0956 C   0  0  0  0  0  0  0  0  0  0  0  0
   -9.2033   20.6350   13.4195 C   0  0  0  0  0  0  0  0  0  0  0  0
   -7.8345   20.3749   13.9143 N   0  3  0  0  0  0  0  0  0  0  0  0
  -12.6188   24.4754   11.3374 O   0  0  0  0  0  0  0  0  0  0  0  0
  -14.4920   22.2690   13.4821 H   0  0  0  0  0  0  0  0  0  0  0  0
  -14.6535   23.4706   12.2980 H   0  0  0  0  0  0  0  0  0  0  0  0
  -13.7094   24.4755   14.2304 H   0  0  0  0  0  0  0  0  0  0  0  0
  -12.4863   22.4998   15.0854 H   0  0  0  0  0  0  0  0  0  0  0  0
  -11.3691   23.8377   14.8695 H   0  0  0  0  0  0  0  0  0  0  0  0
  -10.9043   22.7263   12.4869 H   0  0  0  0  0  0  0  0  0  0  0  0
  -11.6910   21.3203   13.1894 H   0  0  0  0  0  0  0  0  0  0  0  0
   -9.9408   21.6663   15.1649 H   0  0  0  0  0  0  0  0  0  0  0  0
   -9.1102   22.7150   14.0097 H   0  0  0  0  0  0  0  0  0  0  0  0
   -9.1314   20.7613   12.3342 H   0  0  0  0  0  0  0  0  0  0  0  0
   -9.7980   19.7453   13.6429 H   0  0  0  0  0  0  0  0  0  0  0  0
   -7.4299   19.5398   13.4699 H   0  0  0  0  0  0  0  0  0  0  0  0
   -7.1988   21.1601   13.7099 H   0  0  0  0  0  0  0  0  0  0  0  0
  -13.4467   22.4419   12.1286 H   0  0  0  0  0  0  0  0  0  0  0  0
   -7.8134   20.2214   14.9357 H   0  0  0  0  0  0  0  0  0  0  0  0
  1  2  1  0  0  0  0
  1 11  1  0  0  0  0
  1 12  1  0  0  0  0
  1 24  1  0  0  0  0
  2  3  1  0  0  0  0
  2  5  1  0  0  0  0
  2 13  1  1  0  0  0
  3  4  2  0  0  0  0
  3 10  1  0  0  0  0
  5  6  1  0  0  0  0
  5 14  1  0  0  0  0
  5 15  1  0  0  0  0
  6  7  1  0  0  0  0
  6 16  1  0  0  0  0
  6 17  1  0  0  0  0
  7  8  1  0  0  0  0
  7 18  1  0  0  0  0
  7 19  1  0  0  0  0
  8  9  1  0  0  0  0
  8 20  1  0  0  0  0
  8 21  1  0  0  0  0
  9 22  1  0  0  0  0
  9 23  1  0  0  0  0
  9 25  1  0  0  0  0
M  CHG  2   1   1   9   1
M  END
$$$$
