LYS
 OpenBabel04051919263D

 47 46  0  0  1  0  0  0  0  0999 V2000
    6.8601   17.0415   15.4065 N   0  3  0  0  0  0  0  0  0  0  0  0
    6.3438   18.3372   14.8740 C   0  0  2  0  0  0  0  0  0  0  0  0
    5.2061   18.8562   15.7482 C   0  0  0  0  0  0  0  0  0  0  0  0
    4.4793   18.1074   16.3473 O   0  0  0  0  0  0  0  0  0  0  0  0
    5.9263   18.2402   13.4208 C   0  0  0  0  0  0  0  0  0  0  0  0
    5.1535   16.9960   13.0077 C   0  0  0  0  0  0  0  0  0  0  0  0
    5.0836   16.9321   11.4803 C   0  0  0  0  0  0  0  0  0  0  0  0
    6.3748   16.3480   10.9415 C   0  0  0  0  0  0  0  0  0  0  0  0
    6.4721   14.9154   11.3322 N   0  3  0  0  0  0  0  0  0  0  0  0
    5.2420   20.2089   15.8862 N   0  0  0  0  0  0  0  0  0  0  0  0
    4.2153   20.8916   16.6860 C   0  0  2  0  0  0  0  0  0  0  0  0
    2.8314   21.1278   16.0021 C   0  0  0  0  0  0  0  0  0  0  0  0
    2.8714   21.0608   14.7289 O   0  0  0  0  0  0  0  0  0  0  0  0
    4.7433   22.2485   17.1504 C   0  0  0  0  0  0  0  0  0  0  0  0
    5.9940   22.1114   18.0209 C   0  0  0  0  0  0  0  0  0  0  0  0
    5.8931   22.9130   19.3166 C   0  0  0  0  0  0  0  0  0  0  0  0
    7.1988   22.8751   20.0829 C   0  0  0  0  0  0  0  0  0  0  0  0
    7.0639   22.0537   21.3157 N   0  3  0  0  0  0  0  0  0  0  0  0
    1.8925   21.3323   16.7870 O   0  0  0  0  0  0  0  0  0  0  0  0
    7.6252   16.6684   14.8427 H   0  0  0  0  0  0  0  0  0  0  0  0
    7.1966   17.1758   16.3699 H   0  0  0  0  0  0  0  0  0  0  0  0
    7.1947   19.0249   14.9294 H   0  0  0  0  0  0  0  0  0  0  0  0
    6.8306   18.3101   12.8042 H   0  0  0  0  0  0  0  0  0  0  0  0
    5.2988   19.1062   13.1891 H   0  0  0  0  0  0  0  0  0  0  0  0
    4.1480   17.0211   13.4296 H   0  0  0  0  0  0  0  0  0  0  0  0
    5.6588   16.1085   13.3894 H   0  0  0  0  0  0  0  0  0  0  0  0
    4.9551   17.9408   11.0667 H   0  0  0  0  0  0  0  0  0  0  0  0
    4.2277   16.3246   11.1619 H   0  0  0  0  0  0  0  0  0  0  0  0
    7.2406   16.8462   11.3782 H   0  0  0  0  0  0  0  0  0  0  0  0
    6.4202   16.3975    9.8561 H   0  0  0  0  0  0  0  0  0  0  0  0
    7.3414   14.4857   10.9860 H   0  0  0  0  0  0  0  0  0  0  0  0
    6.4461   14.7703   12.3452 H   0  0  0  0  0  0  0  0  0  0  0  0
    5.8633   20.7829   15.3289 H   0  0  0  0  0  0  0  0  0  0  0  0
    4.0331   20.2563   17.5629 H   0  0  0  0  0  0  0  0  0  0  0  0
    3.9635   22.7672   17.7156 H   0  0  0  0  0  0  0  0  0  0  0  0
    4.9965   22.8588   16.2731 H   0  0  0  0  0  0  0  0  0  0  0  0
    6.8639   22.4670   17.4512 H   0  0  0  0  0  0  0  0  0  0  0  0
    6.1531   21.0590   18.2799 H   0  0  0  0  0  0  0  0  0  0  0  0
    5.0720   22.5098   19.9216 H   0  0  0  0  0  0  0  0  0  0  0  0
    5.6683   23.9560   19.0665 H   0  0  0  0  0  0  0  0  0  0  0  0
    7.4864   23.8774   20.3998 H   0  0  0  0  0  0  0  0  0  0  0  0
    7.9956   22.4235   19.4899 H   0  0  0  0  0  0  0  0  0  0  0  0
    7.9431   22.0287   21.8493 H   0  0  0  0  0  0  0  0  0  0  0  0
    6.3406   22.4345   21.9436 H   0  0  0  0  0  0  0  0  0  0  0  0
    6.0876   16.3630   15.4766 H   0  0  0  0  0  0  0  0  0  0  0  0
    5.6899   14.3734   10.9367 H   0  0  0  0  0  0  0  0  0  0  0  0
    6.7996   21.0828   21.1016 H   0  0  0  0  0  0  0  0  0  0  0  0
  1  2  1  0  0  0  0
  1 20  1  0  0  0  0
  1 21  1  0  0  0  0
  1 45  1  0  0  0  0
  2  3  1  0  0  0  0
  2  5  1  0  0  0  0
  2 22  1  1  0  0  0
  3  4  2  0  0  0  0
  3 10  1  0  0  0  0
  5  6  1  0  0  0  0
  5 23  1  0  0  0  0
  5 24  1  0  0  0  0
  6  7  1  0  0  0  0
  6 25  1  0  0  0  0
  6 26  1  0  0  0  0
  7  8  1  0  0  0  0
  7 27  1  0  0  0  0
  7 28  1  0  0  0  0
  8  9  1  0  0  0  0
  8 29  1  0  0  0  0
  8 30  1  0  0  0  0
  9 31  1  0  0  0  0
  9 32  1  0  0  0  0
  9 46  1  0  0  0  0
 10 11  1  0  0  0  0
 10 33  1  0  0  0  0
 11 12  1  0  0  0  0
 11 14  1  0  0  0  0
 11 34  1  1  0  0  0
 12 19  2  0  0  0  0
 12 13  1  0  0  0  0
 14 15  1  0  0  0  0
 14 35  1  0  0  0  0
 14 36  1  0  0  0  0
 15 16  1  0  0  0  0
 15 37  1  0  0  0  0
 15 38  1  0  0  0  0
 16 17  1  0  0  0  0
 16 39  1  0  0  0  0
 16 40  1  0  0  0  0
 17 18  1  0  0  0  0
 17 41  1  0  0  0  0
 17 42  1  0  0  0  0
 18 43  1  0  0  0  0
 18 44  1  0  0  0  0
 18 47  1  0  0  0  0
M  CHG  3   1   1   9   1  18   1
M  END
$$$$
