LZF
 OpenBabel04051919483D

 57 60  0  0  1  0  0  0  0  0999 V2000
   18.4494    6.3226   28.4636 F   0  0  0  0  0  0  0  0  0  0  0  0
   17.4733    7.0595   29.0130 C   0  0  0  0  0  0  0  0  0  0  0  0
   17.7620    7.8106   30.1397 C   0  0  0  0  0  0  0  0  0  0  0  0
   16.7559    8.5618   30.7378 C   0  0  0  0  0  0  0  0  0  0  0  0
   17.0630    9.3535   31.8782 N   0  3  0  0  0  0  0  0  0  0  0  0
   16.9653    8.8681   33.1800 C   0  0  0  0  0  0  0  0  0  0  0  0
   17.2725    9.6396   34.2275 C   0  0  0  0  0  0  0  0  0  0  0  0
   17.7379   10.9903   34.0102 C   0  0  0  0  0  0  0  0  0  0  0  0
   17.8684   11.4776   32.8018 C   0  0  0  0  0  0  0  0  0  0  0  0
   17.5173   10.6503   31.5950 C   0  0  0  0  0  0  0  0  0  0  0  0
   17.6530   11.1139   30.4787 O   0  0  0  0  0  0  0  0  0  0  0  0
   15.4776    8.5917   30.1633 C   0  0  0  0  0  0  0  0  0  0  0  0
   15.1865    7.8397   29.0234 C   0  0  0  0  0  0  0  0  0  0  0  0
   16.1910    7.0628   28.4598 C   0  0  0  0  0  0  0  0  0  0  0  0
   15.9173    6.3439   27.2910 N   0  0  0  0  0  0  0  0  0  0  0  0
   15.8426    7.0443   26.1001 C   0  0  0  0  0  0  0  0  0  0  0  0
   15.9810    8.2482   26.0202 O   0  0  0  0  0  0  0  0  0  0  0  0
   15.5881    6.2356   24.8469 C   0  0  0  0  0  0  0  0  0  0  0  0
   15.4332    4.7752   25.1458 N   0  3  2  0  0  0  0  0  0  0  0  0
   15.5611    3.9072   23.9459 C   0  0  0  0  0  0  0  0  0  0  0  0
   14.8501    2.6349   24.3457 C   0  0  2  0  0  0  0  0  0  0  0  0
   14.2692    1.9177   23.2734 O   0  0  0  0  0  0  0  0  0  0  0  0
   15.1855    1.5637   22.2487 C   0  0  0  0  0  0  0  0  0  0  0  0
   14.1004    4.4593   25.7951 C   0  0  0  0  0  0  0  0  0  0  0  0
   13.7320    3.0720   25.2938 C   0  0  2  0  0  0  0  0  0  0  0  0
   13.7319    2.1128   26.4121 N   0  0  0  0  0  0  0  0  0  0  0  0
   12.6370    1.9609   27.2012 C   0  0  0  0  0  0  0  0  0  0  0  0
   11.6947    2.7082   26.9704 O   0  0  0  0  0  0  0  0  0  0  0  0
   12.6488    1.0372   28.2957 C   0  0  0  0  0  0  0  0  0  0  0  0
   13.4148   -0.0729   28.5899 C   0  0  0  0  0  0  0  0  0  0  0  0
   12.9806   -0.7013   29.8034 C   0  0  0  0  0  0  0  0  0  0  0  0
   11.4331    1.3188   29.4807 S   0  0  0  0  0  0  0  0  0  0  0  0
   11.9438   -0.0102   30.3691 C   0  0  0  0  0  0  0  0  0  0  0  0
   11.1358   -0.3508   31.8354 Cl  0  0  0  0  0  0  0  0  0  0  0  0
   18.7667    7.8092   30.5440 H   0  0  0  0  0  0  0  0  0  0  0  0
   16.6263    7.8478   33.3262 H   0  0  0  0  0  0  0  0  0  0  0  0
   17.1771    9.2703   35.2502 H   0  0  0  0  0  0  0  0  0  0  0  0
   17.9868   11.5953   34.8818 H   0  0  0  0  0  0  0  0  0  0  0  0
   18.2195   12.4834   32.5968 H   0  0  0  0  0  0  0  0  0  0  0  0
   14.7035    9.2167   30.5996 H   0  0  0  0  0  0  0  0  0  0  0  0
   14.1876    7.8623   28.5917 H   0  0  0  0  0  0  0  0  0  0  0  0
   15.7989    5.3519   27.4133 H   0  0  0  0  0  0  0  0  0  0  0  0
   16.4326    6.3546   24.1613 H   0  0  0  0  0  0  0  0  0  0  0  0
   14.6679    6.5870   24.3700 H   0  0  0  0  0  0  0  0  0  0  0  0
   16.6270    3.7322   23.7530 H   0  0  0  0  0  0  0  0  0  0  0  0
   15.0969    4.3971   23.0893 H   0  0  0  0  0  0  0  0  0  0  0  0
   15.5460    1.9872   24.8935 H   0  0  0  0  0  0  0  0  0  0  0  0
   14.6496    1.0122   21.4714 H   0  0  0  0  0  0  0  0  0  0  0  0
   15.9850    0.9385   22.6510 H   0  0  0  0  0  0  0  0  0  0  0  0
   15.6084    2.4673   21.8017 H   0  0  0  0  0  0  0  0  0  0  0  0
   13.3812    5.2369   25.5167 H   0  0  0  0  0  0  0  0  0  0  0  0
   14.2393    4.4683   26.8809 H   0  0  0  0  0  0  0  0  0  0  0  0
   12.7507    3.1275   24.7960 H   0  0  0  0  0  0  0  0  0  0  0  0
   14.5486    1.5772   26.6002 H   0  0  0  0  0  0  0  0  0  0  0  0
   14.2266   -0.4544   27.9822 H   0  0  0  0  0  0  0  0  0  0  0  0
   13.4223   -1.6023   30.2214 H   0  0  0  0  0  0  0  0  0  0  0  0
   16.1959    4.5245   25.7863 H   0  0  0  0  0  0  0  0  0  0  0  0
  1  2  1  0  0  0  0
  2  3  2  0  0  0  0
  2 14  1  0  0  0  0
  3  4  1  0  0  0  0
  3 35  1  0  0  0  0
  4  5  1  0  0  0  0
  4 12  2  0  0  0  0
  5  6  1  0  0  0  0
  5 10  1  0  0  0  0
  6  7  2  0  0  0  0
  6 36  1  0  0  0  0
  7  8  1  0  0  0  0
  7 37  1  0  0  0  0
  8  9  2  0  0  0  0
  8 38  1  0  0  0  0
  9 10  1  0  0  0  0
  9 39  1  0  0  0  0
 10 11  2  0  0  0  0
 12 13  1  0  0  0  0
 12 40  1  0  0  0  0
 13 14  2  0  0  0  0
 13 41  1  0  0  0  0
 14 15  1  0  0  0  0
 15 16  1  0  0  0  0
 15 42  1  0  0  0  0
 16 17  2  0  0  0  0
 16 18  1  0  0  0  0
 18 19  1  0  0  0  0
 18 43  1  0  0  0  0
 18 44  1  0  0  0  0
 19 20  1  0  0  0  0
 19 24  1  0  0  0  0
 19 57  1  1  0  0  0
 20 21  1  0  0  0  0
 20 45  1  0  0  0  0
 20 46  1  0  0  0  0
 21 22  1  0  0  0  0
 21 25  1  0  0  0  0
 21 47  1  1  0  0  0
 22 23  1  0  0  0  0
 23 48  1  0  0  0  0
 23 49  1  0  0  0  0
 23 50  1  0  0  0  0
 24 25  1  0  0  0  0
 24 51  1  0  0  0  0
 24 52  1  0  0  0  0
 25 26  1  0  0  0  0
 25 53  1  6  0  0  0
 26 27  1  0  0  0  0
 26 54  1  0  0  0  0
 27 28  2  0  0  0  0
 27 29  1  0  0  0  0
 29 30  2  0  0  0  0
 29 32  1  0  0  0  0
 30 31  1  0  0  0  0
 30 55  1  0  0  0  0
 31 33  2  0  0  0  0
 31 56  1  0  0  0  0
 32 33  1  0  0  0  0
 33 34  1  0  0  0  0
M  CHG  2   5   1  19   1
M  END
$$$$
