LZK
 OpenBabel04051919343D

 37 39  0  0  0  0  0  0  0  0999 V2000
    1.7445  -27.6024   24.7748 N   0  0  0  0  0  0  0  0  0  0  0  0
    2.0559  -26.2699   24.8319 C   0  0  0  0  0  0  0  0  0  0  0  0
    3.1722  -25.8685   24.2103 N   0  0  0  0  0  0  0  0  0  0  0  0
    1.2299  -25.4621   25.5000 N   0  0  0  0  0  0  0  0  0  0  0  0
    1.5771  -24.1562   25.5403 C   0  0  0  0  0  0  0  0  0  0  0  0
    2.7179  -23.6596   24.9219 C   0  0  0  0  0  0  0  0  0  0  0  0
    3.5136  -24.5798   24.2470 C   0  0  0  0  0  0  0  0  0  0  0  0
    4.6348  -24.1679   23.6243 N   0  0  0  0  0  0  0  0  0  0  0  0
    4.9935  -22.8663   23.6468 C   0  0  0  0  0  0  0  0  0  0  0  0
    6.1261  -22.5118   22.9355 N   0  0  0  0  0  0  0  0  0  0  0  0
    3.0663  -22.3169   24.9625 C   0  0  0  0  0  0  0  0  0  0  0  0
    4.2331  -21.8949   24.3092 C   0  0  0  0  0  0  0  0  0  0  0  0
    4.6039  -20.4674   24.3253 C   0  0  0  0  0  0  0  0  0  0  0  0
    5.8211  -20.0473   24.9273 C   0  0  0  0  0  0  0  0  0  0  0  0
    6.5889  -21.0175   25.5340 O   0  0  0  0  0  0  0  0  0  0  0  0
    7.9859  -20.7751   25.6850 C   0  0  0  0  0  0  0  0  0  0  0  0
    3.7505  -19.5092   23.7149 C   0  0  0  0  0  0  0  0  0  0  0  0
    2.6073  -19.9898   23.1187 O   0  0  0  0  0  0  0  0  0  0  0  0
    1.5999  -19.0695   22.7112 C   0  0  0  0  0  0  0  0  0  0  0  0
    4.1208  -18.1680   23.7182 C   0  0  0  0  0  0  0  0  0  0  0  0
    5.3187  -17.7688   24.3180 C   0  0  0  0  0  0  0  0  0  0  0  0
    6.1666  -18.7018   24.9190 C   0  0  0  0  0  0  0  0  0  0  0  0
    2.3689  -28.2139   24.2780 H   0  0  0  0  0  0  0  0  0  0  0  0
    0.9196  -27.9334   25.2429 H   0  0  0  0  0  0  0  0  0  0  0  0
    0.9030  -23.5059   26.0732 H   0  0  0  0  0  0  0  0  0  0  0  0
    6.4656  -21.5602   22.9673 H   0  0  0  0  0  0  0  0  0  0  0  0
    6.6822  -23.2346   22.5113 H   0  0  0  0  0  0  0  0  0  0  0  0
    2.4477  -21.5920   25.4782 H   0  0  0  0  0  0  0  0  0  0  0  0
    8.4303  -21.6510   26.1717 H   0  0  0  0  0  0  0  0  0  0  0  0
    8.1839  -19.9165   26.3324 H   0  0  0  0  0  0  0  0  0  0  0  0
    8.4753  -20.6513   24.7126 H   0  0  0  0  0  0  0  0  0  0  0  0
    0.7748  -19.6464   22.2761 H   0  0  0  0  0  0  0  0  0  0  0  0
    1.9611  -18.3865   21.9365 H   0  0  0  0  0  0  0  0  0  0  0  0
    1.1998  -18.5168   23.5674 H   0  0  0  0  0  0  0  0  0  0  0  0
    3.4990  -17.4116   23.2537 H   0  0  0  0  0  0  0  0  0  0  0  0
    5.5937  -16.7169   24.3231 H   0  0  0  0  0  0  0  0  0  0  0  0
    7.0756  -18.3487   25.3904 H   0  0  0  0  0  0  0  0  0  0  0  0
  1  2  1  0  0  0  0
  1 23  1  0  0  0  0
  1 24  1  0  0  0  0
  2  3  2  0  0  0  0
  2  4  1  0  0  0  0
  3  7  1  0  0  0  0
  4  5  2  0  0  0  0
  5  6  1  0  0  0  0
  5 25  1  0  0  0  0
  6  7  2  0  0  0  0
  6 11  1  0  0  0  0
  7  8  1  0  0  0  0
  8  9  2  0  0  0  0
  9 10  1  0  0  0  0
  9 12  1  0  0  0  0
 10 26  1  0  0  0  0
 10 27  1  0  0  0  0
 11 12  2  0  0  0  0
 11 28  1  0  0  0  0
 12 13  1  0  0  0  0
 13 14  2  0  0  0  0
 13 17  1  0  0  0  0
 14 15  1  0  0  0  0
 14 22  1  0  0  0  0
 15 16  1  0  0  0  0
 16 29  1  0  0  0  0
 16 30  1  0  0  0  0
 16 31  1  0  0  0  0
 17 18  1  0  0  0  0
 17 20  2  0  0  0  0
 18 19  1  0  0  0  0
 19 32  1  0  0  0  0
 19 33  1  0  0  0  0
 19 34  1  0  0  0  0
 20 21  1  0  0  0  0
 20 35  1  0  0  0  0
 21 22  2  0  0  0  0
 21 36  1  0  0  0  0
 22 37  1  0  0  0  0
M  END
$$$$
