M0N
 OpenBabel04051917433D

 29 30  0  0  1  0  0  0  0  0999 V2000
   29.0510   47.2249    5.3205 O   0  0  0  0  0  0  0  0  0  0  0  0
   28.8277   45.8561    5.8082 C   0  0  0  0  0  0  0  0  0  0  0  0
   29.3602   45.6141    7.2293 C   0  0  0  0  0  0  0  0  0  0  0  0
   28.9267   46.6218    8.2288 C   0  0  2  0  0  0  0  0  0  0  0  0
   28.3986   47.8845    8.0465 C   0  0  0  0  0  0  0  0  0  0  0  0
   28.1394   48.4352    9.2817 N   0  3  0  0  0  0  0  0  0  0  0  0
   28.4626   47.5512   10.2125 C   0  0  2  0  0  0  0  0  0  0  0  0
   28.3367   47.6425   11.6962 C   0  0  0  0  0  0  0  0  0  0  0  0
   28.7999   46.5925   12.3992 C   0  0  0  0  0  0  0  0  0  0  0  0
   29.3617   45.4435   11.6900 C   0  0  0  0  0  0  0  0  0  0  0  0
   29.4502   45.3814   10.3420 C   0  0  0  0  0  0  0  0  0  0  0  0
   29.0098   46.4759    9.6322 N   0  3  1  0  0  0  0  0  0  0  0  0
   30.1738   44.8007    4.5994 P   0  0  0  0  0  0  0  0  0  0  0  0
   29.8602   45.2436    3.1678 O   0  0  0  0  0  0  0  0  0  0  0  0
   31.5333   45.3507    5.0778 O   0  0  0  0  0  0  0  0  0  0  0  0
   30.0240   43.3190    4.9318 O   0  0  0  0  0  0  0  0  0  0  0  0
   26.7683   45.6851    5.8693 P   0  0  0  0  0  0  0  0  0  0  0  0
   26.4670   44.3280    6.5025 O   0  0  0  0  0  0  0  0  0  0  0  0
   26.2570   45.9385    4.4558 O   0  0  0  0  0  0  0  0  0  0  0  0
   26.3358   46.8226    6.8228 O   0  0  0  0  0  0  0  0  0  0  0  0
   28.8435   47.0412    4.3719 H   0  0  0  0  0  0  0  0  0  0  0  0
   30.4543   45.6500    7.2439 H   0  0  0  0  0  0  0  0  0  0  0  0
   29.0603   44.6142    7.5576 H   0  0  0  0  0  0  0  0  0  0  0  0
   28.0993   48.4265    7.1648 H   0  0  0  0  0  0  0  0  0  0  0  0
   27.8984   48.5220   12.1377 H   0  0  0  0  0  0  0  0  0  0  0  0
   28.7504   46.5658   13.4778 H   0  0  0  0  0  0  0  0  0  0  0  0
   29.6945   44.6017   12.2859 H   0  0  0  0  0  0  0  0  0  0  0  0
   29.8401   44.5290    9.7970 H   0  0  0  0  0  0  0  0  0  0  0  0
   27.6006   49.2752    9.3911 H   0  0  0  0  0  0  0  0  0  0  0  0
  1  2  1  0  0  0  0
  1 21  1  0  0  0  0
  2  3  1  0  0  0  0
  2 13  1  0  0  0  0
  2 17  1  0  0  0  0
  3 22  1  0  0  0  0
  3 23  1  0  0  0  0
  4  3  1  6  0  0  0
  4  5  1  0  0  0  0
  4 12  1  0  0  0  0
  5  6  1  0  0  0  0
  5 24  1  0  0  0  0
  6 29  1  0  0  0  0
  7  6  1  1  0  0  0
  7  8  1  0  0  0  0
  7 12  1  0  0  0  0
  8  9  1  0  0  0  0
  8 25  1  0  0  0  0
  9 10  1  0  0  0  0
  9 26  1  0  0  0  0
 10 11  1  0  0  0  0
 10 27  1  0  0  0  0
 11 28  1  0  0  0  0
 12 11  1  1  0  0  0
 13 14  2  0  0  0  0
 13 15  1  0  0  0  0
 13 16  1  0  0  0  0
 17 18  2  0  0  0  0
 17 19  1  0  0  0  0
 17 20  1  0  0  0  0
M  CHG  2   6   1  12   1
M  END
$$$$
