M1S
 OpenBabel04051918173D

 44 45  0  0  0  0  0  0  0  0999 V2000
   55.2156   75.9239   -5.7516 C   0  0  0  0  0  0  0  0  0  0  0  0
   55.1871   76.8590   -4.5592 C   0  0  0  0  0  0  0  0  0  0  0  0
   54.2662   77.9627   -4.5845 C   0  0  0  0  0  0  0  0  0  0  0  0
   54.2801   78.8028   -3.4582 C   0  0  0  0  0  0  0  0  0  0  0  0
   55.1246   78.6154   -2.3700 C   0  0  0  0  0  0  0  0  0  0  0  0
   55.9803   77.5209   -2.3389 C   0  0  0  0  0  0  0  0  0  0  0  0
   56.0359   76.6184   -3.4221 C   0  0  0  0  0  0  0  0  0  0  0  0
   56.9778   75.4313   -3.3530 C   0  0  0  0  0  0  0  0  0  0  0  0
   58.3681   75.6221   -3.9350 C   0  0  0  0  0  0  0  0  0  0  0  0
   58.8937   77.0235   -4.1869 C   0  0  0  0  0  0  0  0  0  0  0  0
   60.3000   76.9889   -4.7864 C   0  0  0  0  0  0  0  0  0  0  0  0
   60.8023   78.3738   -5.1944 C   0  0  0  0  0  0  0  0  0  0  0  0
   59.9687   79.0230   -6.3029 C   0  0  0  0  0  0  0  0  0  0  0  0
   60.0594   78.2352   -7.6147 C   0  0  0  0  0  0  0  0  0  0  0  0
   58.7526   77.5863   -7.9524 C   0  0  0  0  0  0  0  0  0  0  0  0
   58.5931   76.2588   -8.0518 C   0  0  0  0  0  0  0  0  0  0  0  0
   57.2674   75.6276   -8.3791 C   0  0  0  0  0  0  0  0  0  0  0  0
   56.6927   74.7949   -7.2388 C   0  0  0  0  0  0  0  0  0  0  0  0
   54.2467   75.4416   -6.3347 O   0  0  0  0  0  0  0  0  0  0  0  0
   53.4784   78.2398   -5.5481 O   0  0  0  0  0  0  0  0  0  0  0  0
   55.1023   79.5031   -1.3257 O   0  0  0  0  0  0  0  0  0  0  0  0
   56.9794   77.3093   -0.9247 Cl  0  0  0  0  0  0  0  0  0  0  0  0
   59.0796   74.6265   -4.1329 O   0  0  0  0  0  0  0  0  0  0  0  0
   56.5054   75.6290   -6.0819 O   0  0  0  0  0  0  0  0  0  0  0  0
   53.5891   79.6579   -3.4660 H   0  0  0  0  0  0  0  0  0  0  0  0
   56.5210   74.5629   -3.8353 H   0  0  0  0  0  0  0  0  0  0  0  0
   57.1251   75.1146   -2.3154 H   0  0  0  0  0  0  0  0  0  0  0  0
   58.9200   77.5797   -3.2460 H   0  0  0  0  0  0  0  0  0  0  0  0
   58.1992   77.5163   -4.8686 H   0  0  0  0  0  0  0  0  0  0  0  0
   60.3233   76.3130   -5.6481 H   0  0  0  0  0  0  0  0  0  0  0  0
   60.9966   76.5586   -4.0567 H   0  0  0  0  0  0  0  0  0  0  0  0
   61.8420   78.2869   -5.5350 H   0  0  0  0  0  0  0  0  0  0  0  0
   60.8133   79.0302   -4.3167 H   0  0  0  0  0  0  0  0  0  0  0  0
   60.3407   80.0398   -6.4670 H   0  0  0  0  0  0  0  0  0  0  0  0
   58.9291   79.1426   -5.9750 H   0  0  0  0  0  0  0  0  0  0  0  0
   60.8566   77.4905   -7.5730 H   0  0  0  0  0  0  0  0  0  0  0  0
   60.3220   78.9197   -8.4319 H   0  0  0  0  0  0  0  0  0  0  0  0
   57.8903   78.2406   -8.0897 H   0  0  0  0  0  0  0  0  0  0  0  0
   59.4387   75.5956   -7.8820 H   0  0  0  0  0  0  0  0  0  0  0  0
   57.4039   74.9989   -9.2640 H   0  0  0  0  0  0  0  0  0  0  0  0
   56.5455   76.4107   -8.6415 H   0  0  0  0  0  0  0  0  0  0  0  0
   57.3651   73.9716   -6.9728 H   0  0  0  0  0  0  0  0  0  0  0  0
   55.7564   74.3304   -7.5791 H   0  0  0  0  0  0  0  0  0  0  0  0
   54.4473   80.1895   -1.5473 H   0  0  0  0  0  0  0  0  0  0  0  0
  1  2  1  0  0  0  0
  1 19  2  0  0  0  0
  1 24  1  0  0  0  0
  2  3  2  0  0  0  0
  2  7  1  0  0  0  0
  3  4  1  0  0  0  0
  3 20  1  0  0  0  0
  4  5  2  0  0  0  0
  4 25  1  0  0  0  0
  5  6  1  0  0  0  0
  5 21  1  0  0  0  0
  6  7  2  0  0  0  0
  6 22  1  0  0  0  0
  7  8  1  0  0  0  0
  8  9  1  0  0  0  0
  8 26  1  0  0  0  0
  8 27  1  0  0  0  0
  9 10  1  0  0  0  0
  9 23  2  0  0  0  0
 10 11  1  0  0  0  0
 10 28  1  0  0  0  0
 10 29  1  0  0  0  0
 11 12  1  0  0  0  0
 11 30  1  0  0  0  0
 11 31  1  0  0  0  0
 12 13  1  0  0  0  0
 12 32  1  0  0  0  0
 12 33  1  0  0  0  0
 13 14  1  0  0  0  0
 13 34  1  0  0  0  0
 13 35  1  0  0  0  0
 14 15  1  0  0  0  0
 14 36  1  0  0  0  0
 14 37  1  0  0  0  0
 15 16  2  0  0  0  0
 15 38  1  0  0  0  0
 16 17  1  0  0  0  0
 16 39  1  0  0  0  0
 17 18  1  0  0  0  0
 17 40  1  0  0  0  0
 17 41  1  0  0  0  0
 18 24  1  0  0  0  0
 18 42  1  0  0  0  0
 18 43  1  0  0  0  0
 21 44  1  0  0  0  0
M  END
$$$$
