ME5
 OpenBabel04051918453D

 50 53  0  0  1  0  0  0  0  0999 V2000
    8.5895   44.9317   63.4117 C   0  0  0  0  0  0  0  0  0  0  0  0
    9.3461   43.8841   65.5023 C   0  0  0  0  0  0  0  0  0  0  0  0
    9.5206   44.4999   64.2922 C   0  0  0  0  0  0  0  0  0  0  0  0
    7.1344   42.1002   59.3289 C   0  0  0  0  0  0  0  0  0  0  0  0
    5.0514   45.6859   63.5107 C   0  0  0  0  0  0  0  0  0  0  0  0
    4.4011   44.5086   64.2374 C   0  0  0  0  0  0  0  0  0  0  0  0
    4.8834   43.3521   63.3776 C   0  0  0  0  0  0  0  0  0  0  0  0
    5.3948   43.9706   62.0751 C   0  0  1  0  0  0  0  0  0  0  0  0
    8.2007   41.1622   57.3731 C   0  0  0  0  0  0  0  0  0  0  0  0
    9.8575   38.1462   57.5060 C   0  0  0  0  0  0  0  0  0  0  0  0
    8.0731   39.8543   57.9236 C   0  0  0  0  0  0  0  0  0  0  0  0
    6.2035   45.1025   62.6928 C   0  0  2  0  0  0  0  0  0  0  0  0
    7.9556   38.3711   55.9914 C   0  0  0  0  0  0  0  0  0  0  0  0
    6.9663   40.7949   59.8666 C   0  0  0  0  0  0  0  0  0  0  0  0
    8.5984   37.3255   55.1176 C   0  0  0  0  0  0  0  0  0  0  0  0
    6.5335   43.2850   60.0289 C   0  0  0  0  0  0  0  0  0  0  0  0
    7.7629   42.2918   58.0838 C   0  0  0  0  0  0  0  0  0  0  0  0
    8.6297   38.7320   57.1803 N   0  3  0  0  0  0  0  0  0  0  0  0
    7.4183   39.6715   59.1636 C   0  0  0  0  0  0  0  0  0  0  0  0
   10.4232   37.2307   56.7157 C   0  0  0  0  0  0  0  0  0  0  0  0
    9.7736   36.8056   55.4768 C   0  0  0  0  0  0  0  0  0  0  0  0
    6.8686   38.8563   55.6653 O   0  0  0  0  0  0  0  0  0  0  0  0
    6.1095   43.0170   61.3123 N   0  0  0  0  0  0  0  0  0  0  0  0
    6.3644   44.3686   59.5042 O   0  0  0  0  0  0  0  0  0  0  0  0
    7.2632   44.6076   63.5930 N   0  0  0  0  0  0  0  0  0  0  0  0
    8.8438   45.6487   62.4165 O   0  0  0  0  0  0  0  0  0  0  0  0
   10.5817   43.6055   66.1475 C   0  0  0  0  0  0  0  0  0  0  0  0
   11.2104   44.7606   63.9532 S   0  0  0  0  0  0  0  0  0  0  0  0
   11.6661   44.0220   65.4026 C   0  0  0  0  0  0  0  0  0  0  0  0
   13.3386   43.8618   65.7755 Cl  0  0  0  0  0  0  0  0  0  0  0  0
    8.3468   43.6483   65.8932 H   0  0  0  0  0  0  0  0  0  0  0  0
    5.3956   46.4321   64.2142 H   0  0  0  0  0  0  0  0  0  0  0  0
    4.3034   46.0927   62.8194 H   0  0  0  0  0  0  0  0  0  0  0  0
    3.3053   44.5662   64.2526 H   0  0  0  0  0  0  0  0  0  0  0  0
    4.7347   44.4301   65.2825 H   0  0  0  0  0  0  0  0  0  0  0  0
    4.1230   42.6141   63.2022 H   0  0  0  0  0  0  0  0  0  0  0  0
    5.7253   42.8695   63.8786 H   0  0  0  0  0  0  0  0  0  0  0  0
    4.5757   44.3576   61.4475 H   0  0  0  0  0  0  0  0  0  0  0  0
    8.6453   41.2876   56.3837 H   0  0  0  0  0  0  0  0  0  0  0  0
   10.3414   38.4913   58.4373 H   0  0  0  0  0  0  0  0  0  0  0  0
    6.6335   45.8103   61.9719 H   0  0  0  0  0  0  0  0  0  0  0  0
    6.4534   40.6338   60.8194 H   0  0  0  0  0  0  0  0  0  0  0  0
    8.0782   37.0218   54.1886 H   0  0  0  0  0  0  0  0  0  0  0  0
    7.8857   43.2954   57.6680 H   0  0  0  0  0  0  0  0  0  0  0  0
    7.2225   38.6764   59.5710 H   0  0  0  0  0  0  0  0  0  0  0  0
   11.3902   36.7653   56.9637 H   0  0  0  0  0  0  0  0  0  0  0  0
   10.2950   36.0418   54.8666 H   0  0  0  0  0  0  0  0  0  0  0  0
    6.2911   42.1286   61.7286 H   0  0  0  0  0  0  0  0  0  0  0  0
    7.0409   43.9945   64.3658 H   0  0  0  0  0  0  0  0  0  0  0  0
   10.6339   43.1194   67.1019 H   0  0  0  0  0  0  0  0  0  0  0  0
  1  3  1  0  0  0  0
  1 25  1  0  0  0  0
  1 26  2  0  0  0  0
  2  3  2  0  0  0  0
  2 27  1  0  0  0  0
  2 31  1  0  0  0  0
  3 28  1  0  0  0  0
  4 14  2  0  0  0  0
  4 16  1  0  0  0  0
  4 17  1  0  0  0  0
  5  6  1  0  0  0  0
  5 12  1  0  0  0  0
  5 32  1  0  0  0  0
  5 33  1  0  0  0  0
  6  7  1  0  0  0  0
  6 34  1  0  0  0  0
  6 35  1  0  0  0  0
  7  8  1  0  0  0  0
  7 36  1  0  0  0  0
  7 37  1  0  0  0  0
  8 12  1  0  0  0  0
  8 23  1  0  0  0  0
  8 38  1  6  0  0  0
  9 11  1  0  0  0  0
  9 17  2  0  0  0  0
  9 39  1  0  0  0  0
 10 18  1  0  0  0  0
 10 20  2  0  0  0  0
 10 40  1  0  0  0  0
 11 18  1  0  0  0  0
 11 19  2  0  0  0  0
 12 25  1  0  0  0  0
 12 41  1  6  0  0  0
 13 15  1  0  0  0  0
 13 18  1  0  0  0  0
 13 22  2  0  0  0  0
 14 19  1  0  0  0  0
 14 42  1  0  0  0  0
 15 21  2  0  0  0  0
 15 43  1  0  0  0  0
 16 23  1  0  0  0  0
 16 24  2  0  0  0  0
 17 44  1  0  0  0  0
 19 45  1  0  0  0  0
 20 21  1  0  0  0  0
 20 46  1  0  0  0  0
 21 47  1  0  0  0  0
 23 48  1  0  0  0  0
 25 49  1  0  0  0  0
 27 29  2  0  0  0  0
 27 50  1  0  0  0  0
 28 29  1  0  0  0  0
 29 30  1  0  0  0  0
M  CHG  1  18   1
M  END
$$$$
