MIY
 OpenBabel04051920073D

 61 64  0  0  1  0  0  0  0  0999 V2000
  -13.6731   17.5065   15.1722 O   0  0  0  0  0  0  0  0  0  0  0  0
  -13.0792   16.6761   15.8100 C   0  0  0  0  0  0  0  0  0  0  0  0
  -11.8055   16.8531   16.1912 N   0  0  0  0  0  0  0  0  0  0  0  0
  -13.6030   15.2797   15.9413 C   0  0  1  0  0  0  0  0  0  0  0  0
  -14.8803   14.9951   16.5716 C   0  0  0  0  0  0  0  0  0  0  0  0
  -15.7470   15.8844   16.6583 O   0  0  0  0  0  0  0  0  0  0  0  0
  -13.1575   14.3212   14.9098 C   0  0  2  0  0  0  0  0  0  0  0  0
  -13.0517   14.7965   13.6089 O   0  0  0  0  0  0  0  0  0  0  0  0
  -13.5132   12.8778   15.1624 C   0  0  1  0  0  0  0  0  0  0  0  0
  -12.1884   12.2870   15.7329 N   0  3  0  0  0  0  0  0  0  0  0  0
  -12.2467   10.8224   15.7905 C   0  0  0  0  0  0  0  0  0  0  0  0
  -11.7362   12.8091   17.0803 C   0  0  0  0  0  0  0  0  0  0  0  0
  -14.7557   12.5807   16.0041 C   0  0  1  0  0  0  0  0  0  0  0  0
  -14.9937   13.5742   17.1355 C   0  0  1  0  0  0  0  0  0  0  0  0
  -13.9176   13.3881   18.0466 O   0  0  0  0  0  0  0  0  0  0  0  0
  -16.2612   13.4230   17.8762 C   0  0  0  0  0  0  0  0  0  0  0  0
  -16.1636   14.0266   18.9598 O   0  0  0  0  0  0  0  0  0  0  0  0
  -17.2644   12.7169   17.2658 C   0  0  0  0  0  0  0  0  0  0  0  0
  -17.1768   12.0456   15.9391 C   0  0  2  0  0  0  0  0  0  0  0  0
  -15.9976   12.5481   15.1035 C   0  0  0  0  0  0  0  0  0  0  0  0
  -18.5433   12.6665   18.0546 C   0  0  0  0  0  0  0  0  0  0  0  0
  -18.6805   13.1559   19.1184 O   0  0  0  0  0  0  0  0  0  0  0  0
  -19.6663   11.9247   17.3592 C   0  0  0  0  0  0  0  0  0  0  0  0
  -19.6343   11.7162   15.9842 C   0  0  0  0  0  0  0  0  0  0  0  0
  -18.4708   12.2280   15.1727 C   0  0  0  0  0  0  0  0  0  0  0  0
  -20.7484   11.4697   18.1827 C   0  0  0  0  0  0  0  0  0  0  0  0
  -20.8353   11.5991   19.4318 O   0  0  0  0  0  0  0  0  0  0  0  0
  -21.7714   10.7966   17.4978 C   0  0  0  0  0  0  0  0  0  0  0  0
  -21.7569   10.5866   16.1327 C   0  0  0  0  0  0  0  0  0  0  0  0
  -20.6921   11.0418   15.3318 C   0  0  0  0  0  0  0  0  0  0  0  0
  -20.6779   10.8537   13.9352 N   0  0  0  0  0  0  0  0  0  0  0  0
  -20.9830   12.1286   13.2946 C   0  0  0  0  0  0  0  0  0  0  0  0
  -21.5902    9.8240   13.4729 C   0  0  0  0  0  0  0  0  0  0  0  0
  -11.2808   16.1442   16.6689 H   0  0  0  0  0  0  0  0  0  0  0  0
  -11.4450   17.7920   16.1280 H   0  0  0  0  0  0  0  0  0  0  0  0
  -12.9612   15.0037   16.7441 H   0  0  0  0  0  0  0  0  0  0  0  0
  -12.0997   14.3471   15.1582 H   0  0  0  0  0  0  0  0  0  0  0  0
  -12.7329   14.0346   13.0750 H   0  0  0  0  0  0  0  0  0  0  0  0
  -13.6090   12.3634   14.1856 H   0  0  0  0  0  0  0  0  0  0  0  0
  -11.2964   10.4862   16.1800 H   0  0  0  0  0  0  0  0  0  0  0  0
  -12.4048   10.4761   14.7761 H   0  0  0  0  0  0  0  0  0  0  0  0
  -13.0531   10.5533   16.4535 H   0  0  0  0  0  0  0  0  0  0  0  0
  -11.6556   13.8849   17.0954 H   0  0  0  0  0  0  0  0  0  0  0  0
  -10.7584   12.4069   17.3060 H   0  0  0  0  0  0  0  0  0  0  0  0
  -12.3832   12.3917   17.8140 H   0  0  0  0  0  0  0  0  0  0  0  0
  -14.6651   11.5818   16.4304 H   0  0  0  0  0  0  0  0  0  0  0  0
  -14.0695   13.9902   18.8181 H   0  0  0  0  0  0  0  0  0  0  0  0
  -17.0270   10.9719   16.1254 H   0  0  0  0  0  0  0  0  0  0  0  0
  -15.8404   11.8787   14.2495 H   0  0  0  0  0  0  0  0  0  0  0  0
  -16.2109   13.5509   14.7073 H   0  0  0  0  0  0  0  0  0  0  0  0
  -18.3953   11.6775   14.2305 H   0  0  0  0  0  0  0  0  0  0  0  0
  -18.6277   13.2882   14.9425 H   0  0  0  0  0  0  0  0  0  0  0  0
  -22.6086   10.4334   18.1012 H   0  0  0  0  0  0  0  0  0  0  0  0
  -22.6095   10.0799   15.6987 H   0  0  0  0  0  0  0  0  0  0  0  0
  -20.9493   11.9877   12.2121 H   0  0  0  0  0  0  0  0  0  0  0  0
  -20.2651   12.9031   13.5517 H   0  0  0  0  0  0  0  0  0  0  0  0
  -21.9856   12.4568   13.5763 H   0  0  0  0  0  0  0  0  0  0  0  0
  -21.3698    8.8689   13.9491 H   0  0  0  0  0  0  0  0  0  0  0  0
  -21.4820    9.7212   12.3949 H   0  0  0  0  0  0  0  0  0  0  0  0
  -22.6209   10.1257   13.6739 H   0  0  0  0  0  0  0  0  0  0  0  0
  -11.4476   12.5776   15.0809 H   0  0  0  0  0  0  0  0  0  0  0  0
  1  2  2  0  0  0  0
  2  3  1  0  0  0  0
  2  4  1  0  0  0  0
  3 34  1  0  0  0  0
  3 35  1  0  0  0  0
  4  5  1  0  0  0  0
  4  7  1  0  0  0  0
  4 36  1  1  0  0  0
  5  6  2  0  0  0  0
  5 14  1  0  0  0  0
  7  8  1  0  0  0  0
  7  9  1  0  0  0  0
  7 37  1  1  0  0  0
  8 38  1  0  0  0  0
  9 10  1  0  0  0  0
  9 13  1  0  0  0  0
  9 39  1  6  0  0  0
 10 11  1  0  0  0  0
 10 12  1  0  0  0  0
 10 61  1  0  0  0  0
 11 40  1  0  0  0  0
 11 41  1  0  0  0  0
 11 42  1  0  0  0  0
 12 43  1  0  0  0  0
 12 44  1  0  0  0  0
 12 45  1  0  0  0  0
 13 14  1  0  0  0  0
 13 20  1  0  0  0  0
 13 46  1  1  0  0  0
 14 15  1  1  0  0  0
 14 16  1  0  0  0  0
 15 47  1  0  0  0  0
 16 17  1  0  0  0  0
 16 18  2  0  0  0  0
 18 19  1  0  0  0  0
 18 21  1  0  0  0  0
 19 20  1  0  0  0  0
 19 25  1  0  0  0  0
 19 48  1  1  0  0  0
 20 49  1  0  0  0  0
 20 50  1  0  0  0  0
 21 22  2  0  0  0  0
 21 23  1  0  0  0  0
 23 24  2  0  0  0  0
 23 26  1  0  0  0  0
 24 25  1  0  0  0  0
 24 30  1  0  0  0  0
 25 51  1  0  0  0  0
 25 52  1  0  0  0  0
 26 27  1  0  0  0  0
 26 28  2  0  0  0  0
 28 29  1  0  0  0  0
 28 53  1  0  0  0  0
 29 30  2  0  0  0  0
 29 54  1  0  0  0  0
 30 31  1  0  0  0  0
 31 32  1  0  0  0  0
 31 33  1  0  0  0  0
 32 55  1  0  0  0  0
 32 56  1  0  0  0  0
 32 57  1  0  0  0  0
 33 58  1  0  0  0  0
 33 59  1  0  0  0  0
 33 60  1  0  0  0  0
M  CHG  1  10   1
M  END
$$$$
