MK1
 OpenBabel04051917213D

 93 97  0  0  1  0  0  0  0  0999 V2000
   22.5287   34.9295   16.2822 N   0  0  0  0  0  0  0  0  0  0  0  0
   21.1753   34.8333   15.6968 C   0  0  0  0  0  0  0  0  0  0  0  0
   20.3860   33.6538   16.2900 C   0  0  1  0  0  0  0  0  0  0  0  0
   19.0344   33.6225   15.5797 C   0  0  0  0  0  0  0  0  0  0  0  0
   18.9506   33.1792   14.4437 O   0  0  0  0  0  0  0  0  0  0  0  0
   17.9818   34.0549   16.3480 N   0  0  0  0  0  0  0  0  0  0  0  0
   16.5871   34.1015   15.8896 C   0  0  0  0  0  0  0  0  0  0  0  0
   15.7500   34.6888   17.0403 C   0  0  0  0  0  0  0  0  0  0  0  0
   16.0810   32.6884   15.5621 C   0  0  0  0  0  0  0  0  0  0  0  0
   16.4482   35.0158   14.6638 C   0  0  0  0  0  0  0  0  0  0  0  0
   21.1612   32.3459   16.0590 N   0  3  1  0  0  0  0  0  0  0  0  0
   22.5680   32.4577   16.6159 C   0  0  0  0  0  0  0  0  0  0  0  0
   23.2812   33.6837   16.0300 C   0  0  0  0  0  0  0  0  0  0  0  0
   20.4518   31.1407   16.6079 C   0  0  0  0  0  0  0  0  0  0  0  0
   20.6199   29.9204   15.6859 C   0  0  1  0  0  0  0  0  0  0  0  0
   20.6129   28.7395   16.4774 O   0  0  0  0  0  0  0  0  0  0  0  0
   19.4893   29.8828   14.6529 C   0  0  0  0  0  0  0  0  0  0  0  0
   19.5726   28.6889   13.6917 C   0  0  1  0  0  0  0  0  0  0  0  0
   18.2650   28.6337   12.8768 C   0  0  0  0  0  0  0  0  0  0  0  0
   18.2425   27.5907   11.7910 C   0  0  0  0  0  0  0  0  0  0  0  0
   18.3647   26.2291   12.0946 C   0  0  0  0  0  0  0  0  0  0  0  0
   18.3934   25.2801   11.0716 C   0  0  0  0  0  0  0  0  0  0  0  0
   18.2828   25.6835    9.7422 C   0  0  0  0  0  0  0  0  0  0  0  0
   18.1369   27.0340    9.4325 C   0  0  0  0  0  0  0  0  0  0  0  0
   18.1168   27.9827   10.4515 C   0  0  0  0  0  0  0  0  0  0  0  0
   20.7512   28.8921   12.7490 C   0  0  0  0  0  0  0  0  0  0  0  0
   21.0252   29.9970   12.2845 O   0  0  0  0  0  0  0  0  0  0  0  0
   21.4441   27.7521   12.4522 N   0  0  0  0  0  0  0  0  0  0  0  0
   22.3528   27.6815   11.3366 C   0  0  2  0  0  0  0  0  0  0  0  0
   22.3078   26.2987   10.6306 C   0  0  2  0  0  0  0  0  0  0  0  0
   22.1025   25.2472   11.6000 O   0  0  0  0  0  0  0  0  0  0  0  0
   23.6813   26.1497    9.9475 C   0  0  0  0  0  0  0  0  0  0  0  0
   24.5642   26.9066   10.8982 C   0  0  0  0  0  0  0  0  0  0  0  0
   25.9440   26.8626   10.9955 C   0  0  0  0  0  0  0  0  0  0  0  0
   26.5668   27.6699   11.9463 C   0  0  0  0  0  0  0  0  0  0  0  0
   25.8118   28.5218   12.7716 C   0  0  0  0  0  0  0  0  0  0  0  0
   24.4221   28.5729   12.6550 C   0  0  0  0  0  0  0  0  0  0  0  0
   23.8065   27.7596   11.7154 C   0  0  0  0  0  0  0  0  0  0  0  0
   23.2614   36.0737   15.7128 C   0  0  0  0  0  0  0  0  0  0  0  0
   22.6655   37.3949   16.1054 C   0  0  0  0  0  0  0  0  0  0  0  0
   22.6015   37.7997   17.4341 C   0  0  0  0  0  0  0  0  0  0  0  0
   22.0946   38.9840   17.8393 N   0  0  0  0  0  0  0  0  0  0  0  0
   21.6520   39.8177   16.8758 C   0  0  0  0  0  0  0  0  0  0  0  0
   21.6576   39.5058   15.5256 C   0  0  0  0  0  0  0  0  0  0  0  0
   22.1621   38.2703   15.1388 C   0  0  0  0  0  0  0  0  0  0  0  0
   21.2414   34.7263   14.6044 H   0  0  0  0  0  0  0  0  0  0  0  0
   20.5991   35.7468   15.8876 H   0  0  0  0  0  0  0  0  0  0  0  0
   20.2614   33.7524   17.3772 H   0  0  0  0  0  0  0  0  0  0  0  0
   18.1551   34.4217   17.2796 H   0  0  0  0  0  0  0  0  0  0  0  0
   14.6900   34.7513   16.7795 H   0  0  0  0  0  0  0  0  0  0  0  0
   16.0974   35.6955   17.2974 H   0  0  0  0  0  0  0  0  0  0  0  0
   15.8481   34.0776   17.9461 H   0  0  0  0  0  0  0  0  0  0  0  0
   15.0320   32.7047   15.2515 H   0  0  0  0  0  0  0  0  0  0  0  0
   16.1690   32.0269   16.4322 H   0  0  0  0  0  0  0  0  0  0  0  0
   16.6538   32.2263   14.7505 H   0  0  0  0  0  0  0  0  0  0  0  0
   15.4053   35.0804   14.3365 H   0  0  0  0  0  0  0  0  0  0  0  0
   17.0349   34.6552   13.8129 H   0  0  0  0  0  0  0  0  0  0  0  0
   16.7980   36.0295   14.8907 H   0  0  0  0  0  0  0  0  0  0  0  0
   23.0973   31.5338   16.3669 H   0  0  0  0  0  0  0  0  0  0  0  0
   22.4722   32.5466   17.7050 H   0  0  0  0  0  0  0  0  0  0  0  0
   24.2715   33.7504   16.4951 H   0  0  0  0  0  0  0  0  0  0  0  0
   23.4263   33.5342   14.9524 H   0  0  0  0  0  0  0  0  0  0  0  0
   19.3915   31.3791   16.7379 H   0  0  0  0  0  0  0  0  0  0  0  0
   20.8497   30.9439   17.6142 H   0  0  0  0  0  0  0  0  0  0  0  0
   21.5929   29.9560   15.1841 H   0  0  0  0  0  0  0  0  0  0  0  0
   19.7361   28.6177   16.8864 H   0  0  0  0  0  0  0  0  0  0  0  0
   19.4932   30.8137   14.0798 H   0  0  0  0  0  0  0  0  0  0  0  0
   18.5280   29.8363   15.1824 H   0  0  0  0  0  0  0  0  0  0  0  0
   19.7016   27.7596   14.2567 H   0  0  0  0  0  0  0  0  0  0  0  0
   18.0708   29.6206   12.4337 H   0  0  0  0  0  0  0  0  0  0  0  0
   17.4196   28.4418   13.5514 H   0  0  0  0  0  0  0  0  0  0  0  0
   18.4496   25.8955   13.1252 H   0  0  0  0  0  0  0  0  0  0  0  0
   18.5020   24.2260   11.3119 H   0  0  0  0  0  0  0  0  0  0  0  0
   18.3044   24.9443    8.9462 H   0  0  0  0  0  0  0  0  0  0  0  0
   18.0385   27.3481    8.3965 H   0  0  0  0  0  0  0  0  0  0  0  0
   18.0087   29.0356   10.1899 H   0  0  0  0  0  0  0  0  0  0  0  0
   21.2553   26.8657   12.9097 H   0  0  0  0  0  0  0  0  0  0  0  0
   22.1393   28.4771   10.6133 H   0  0  0  0  0  0  0  0  0  0  0  0
   21.4781   26.2337    9.9208 H   0  0  0  0  0  0  0  0  0  0  0  0
   22.1420   24.4034   11.1161 H   0  0  0  0  0  0  0  0  0  0  0  0
   23.6861   26.6527    8.9739 H   0  0  0  0  0  0  0  0  0  0  0  0
   23.9908   25.1069    9.8479 H   0  0  0  0  0  0  0  0  0  0  0  0
   26.5333   26.2164   10.3523 H   0  0  0  0  0  0  0  0  0  0  0  0
   27.6481   27.6466   12.0509 H   0  0  0  0  0  0  0  0  0  0  0  0
   26.3198   29.1428   13.5041 H   0  0  0  0  0  0  0  0  0  0  0  0
   23.8372   29.2480   13.2737 H   0  0  0  0  0  0  0  0  0  0  0  0
   23.3008   35.9837   14.6193 H   0  0  0  0  0  0  0  0  0  0  0  0
   24.3004   36.0654   16.0639 H   0  0  0  0  0  0  0  0  0  0  0  0
   22.9584   37.1612   18.2396 H   0  0  0  0  0  0  0  0  0  0  0  0
   21.2868   40.7808   17.2220 H   0  0  0  0  0  0  0  0  0  0  0  0
   21.2883   40.2119   14.7904 H   0  0  0  0  0  0  0  0  0  0  0  0
   22.1679   37.9997   14.0858 H   0  0  0  0  0  0  0  0  0  0  0  0
   21.2092   32.2579   15.0245 H   0  0  0  0  0  0  0  0  0  0  0  0
  1  2  1  0  0  0  0
  1 13  1  0  0  0  0
  1 39  1  0  0  0  0
  2  3  1  0  0  0  0
  2 46  1  0  0  0  0
  2 47  1  0  0  0  0
  3  4  1  0  0  0  0
  3 11  1  0  0  0  0
  3 48  1  1  0  0  0
  4  5  2  0  0  0  0
  4  6  1  0  0  0  0
  6  7  1  0  0  0  0
  6 49  1  0  0  0  0
  7  8  1  0  0  0  0
  7  9  1  0  0  0  0
  7 10  1  0  0  0  0
  8 50  1  0  0  0  0
  8 51  1  0  0  0  0
  8 52  1  0  0  0  0
  9 53  1  0  0  0  0
  9 54  1  0  0  0  0
  9 55  1  0  0  0  0
 10 56  1  0  0  0  0
 10 57  1  0  0  0  0
 10 58  1  0  0  0  0
 11 12  1  0  0  0  0
 11 14  1  0  0  0  0
 11 93  1  6  0  0  0
 12 13  1  0  0  0  0
 12 59  1  0  0  0  0
 12 60  1  0  0  0  0
 13 61  1  0  0  0  0
 13 62  1  0  0  0  0
 14 15  1  0  0  0  0
 14 63  1  0  0  0  0
 14 64  1  0  0  0  0
 15 16  1  0  0  0  0
 15 17  1  0  0  0  0
 15 65  1  6  0  0  0
 16 66  1  0  0  0  0
 17 18  1  0  0  0  0
 17 67  1  0  0  0  0
 17 68  1  0  0  0  0
 18 19  1  0  0  0  0
 18 26  1  0  0  0  0
 18 69  1  1  0  0  0
 19 20  1  0  0  0  0
 19 70  1  0  0  0  0
 19 71  1  0  0  0  0
 20 21  2  0  0  0  0
 20 25  1  0  0  0  0
 21 22  1  0  0  0  0
 21 72  1  0  0  0  0
 22 23  2  0  0  0  0
 22 73  1  0  0  0  0
 23 24  1  0  0  0  0
 23 74  1  0  0  0  0
 24 25  2  0  0  0  0
 24 75  1  0  0  0  0
 25 76  1  0  0  0  0
 26 27  2  0  0  0  0
 26 28  1  0  0  0  0
 28 29  1  0  0  0  0
 28 77  1  0  0  0  0
 29 30  1  0  0  0  0
 29 38  1  0  0  0  0
 29 78  1  6  0  0  0
 30 31  1  0  0  0  0
 30 32  1  0  0  0  0
 30 79  1  6  0  0  0
 31 80  1  0  0  0  0
 32 33  1  0  0  0  0
 32 81  1  0  0  0  0
 32 82  1  0  0  0  0
 33 34  2  0  0  0  0
 33 38  1  0  0  0  0
 34 35  1  0  0  0  0
 34 83  1  0  0  0  0
 35 36  2  0  0  0  0
 35 84  1  0  0  0  0
 36 37  1  0  0  0  0
 36 85  1  0  0  0  0
 37 38  2  0  0  0  0
 37 86  1  0  0  0  0
 39 40  1  0  0  0  0
 39 87  1  0  0  0  0
 39 88  1  0  0  0  0
 40 41  2  0  0  0  0
 40 45  1  0  0  0  0
 41 42  1  0  0  0  0
 41 89  1  0  0  0  0
 42 43  2  0  0  0  0
 43 44  1  0  0  0  0
 43 90  1  0  0  0  0
 44 45  2  0  0  0  0
 44 91  1  0  0  0  0
 45 92  1  0  0  0  0
M  CHG  1  11   1
M  END
$$$$
