MK1
 OpenBabel04051919183D

 93 97  0  0  1  0  0  0  0  0999 V2000
   26.4522   -8.2961   -1.6017 N   0  0  0  0  0  0  0  0  0  0  0  0
   27.9259   -8.3763   -1.5403 C   0  0  0  0  0  0  0  0  0  0  0  0
   28.4843   -9.5200   -2.4023 C   0  0  1  0  0  0  0  0  0  0  0  0
   30.0111   -9.4987   -2.2615 C   0  0  0  0  0  0  0  0  0  0  0  0
   30.5434   -9.8997   -1.2551 O   0  0  0  0  0  0  0  0  0  0  0  0
   30.6795   -9.0441   -3.3755 N   0  0  0  0  0  0  0  0  0  0  0  0
   32.1327   -8.9347   -3.5165 C   0  0  0  0  0  0  0  0  0  0  0  0
   32.3754   -8.3487   -4.9048 C   0  0  0  0  0  0  0  0  0  0  0  0
   32.7850  -10.3137   -3.4453 C   0  0  0  0  0  0  0  0  0  0  0  0
   32.7447   -7.9845   -2.4848 C   0  0  0  0  0  0  0  0  0  0  0  0
   27.8721  -10.8471   -1.8778 N   0  3  1  0  0  0  0  0  0  0  0  0
   26.3638  -10.7959   -1.9087 C   0  0  0  0  0  0  0  0  0  0  0  0
   25.8800   -9.5802   -1.1183 C   0  0  0  0  0  0  0  0  0  0  0  0
   28.3525  -12.0544   -2.6083 C   0  0  0  0  0  0  0  0  0  0  0  0
   28.6114  -13.2154   -1.6412 C   0  0  1  0  0  0  0  0  0  0  0  0
   28.2133  -14.3964   -2.3298 O   0  0  0  0  0  0  0  0  0  0  0  0
   30.0882  -13.3557   -1.2551 C   0  0  0  0  0  0  0  0  0  0  0  0
   30.3729  -14.5148   -0.2820 C   0  0  1  0  0  0  0  0  0  0  0  0
   31.8877  -14.6127    0.0094 C   0  0  0  0  0  0  0  0  0  0  0  0
   32.2723  -15.7139    0.9785 C   0  0  0  0  0  0  0  0  0  0  0  0
   31.9660  -17.0656    0.7150 C   0  0  0  0  0  0  0  0  0  0  0  0
   32.2994  -18.0585    1.6269 C   0  0  0  0  0  0  0  0  0  0  0  0
   32.9492  -17.7202    2.8225 C   0  0  0  0  0  0  0  0  0  0  0  0
   33.2633  -16.3793    3.0919 C   0  0  0  0  0  0  0  0  0  0  0  0
   32.9291  -15.3754    2.1681 C   0  0  0  0  0  0  0  0  0  0  0  0
   29.6350  -14.2851    1.0405 C   0  0  0  0  0  0  0  0  0  0  0  0
   29.5809  -13.2247    1.6126 O   0  0  0  0  0  0  0  0  0  0  0  0
   29.0480  -15.4318    1.5076 N   0  0  0  0  0  0  0  0  0  0  0  0
   28.6499  -15.5611    2.8873 C   0  0  2  0  0  0  0  0  0  0  0  0
   28.9825  -16.9564    3.4790 C   0  0  2  0  0  0  0  0  0  0  0  0
   28.7994  -17.9950    2.4967 O   0  0  0  0  0  0  0  0  0  0  0  0
   27.9798  -17.1172    4.6388 C   0  0  0  0  0  0  0  0  0  0  0  0
   26.7827  -16.3272    4.1673 C   0  0  0  0  0  0  0  0  0  0  0  0
   25.4540  -16.3728    4.6072 C   0  0  0  0  0  0  0  0  0  0  0  0
   24.5049  -15.5205    4.0063 C   0  0  0  0  0  0  0  0  0  0  0  0
   24.8867  -14.6358    2.9879 C   0  0  0  0  0  0  0  0  0  0  0  0
   26.2220  -14.5939    2.5631 C   0  0  0  0  0  0  0  0  0  0  0  0
   27.1658  -15.4434    3.1471 C   0  0  0  0  0  0  0  0  0  0  0  0
   25.9480   -7.1887   -0.7459 C   0  0  0  0  0  0  0  0  0  0  0  0
   26.4037   -5.7809   -1.0870 C   0  0  0  0  0  0  0  0  0  0  0  0
   25.9922   -5.1407   -2.2571 C   0  0  0  0  0  0  0  0  0  0  0  0
   26.3609   -3.8797   -2.5977 N   0  0  0  0  0  0  0  0  0  0  0  0
   27.1619   -3.2201   -1.7213 C   0  0  0  0  0  0  0  0  0  0  0  0
   27.6143   -3.7656   -0.5230 C   0  0  0  0  0  0  0  0  0  0  0  0
   27.2241   -5.0641   -0.1993 C   0  0  0  0  0  0  0  0  0  0  0  0
   28.2497   -8.5324   -0.5030 H   0  0  0  0  0  0  0  0  0  0  0  0
   28.3510   -7.4392   -1.9054 H   0  0  0  0  0  0  0  0  0  0  0  0
   28.1955   -9.4139   -3.4529 H   0  0  0  0  0  0  0  0  0  0  0  0
   30.1438   -8.7434   -4.1753 H   0  0  0  0  0  0  0  0  0  0  0  0
   33.4424   -8.2276   -5.1018 H   0  0  0  0  0  0  0  0  0  0  0  0
   31.8828   -7.3725   -4.9816 H   0  0  0  0  0  0  0  0  0  0  0  0
   31.9418   -9.0086   -5.6646 H   0  0  0  0  0  0  0  0  0  0  0  0
   33.8735  -10.2403   -3.5506 H   0  0  0  0  0  0  0  0  0  0  0  0
   32.4009  -10.9501   -4.2517 H   0  0  0  0  0  0  0  0  0  0  0  0
   32.5612  -10.8012   -2.4918 H   0  0  0  0  0  0  0  0  0  0  0  0
   33.8336   -7.9158   -2.6095 H   0  0  0  0  0  0  0  0  0  0  0  0
   32.5383   -8.3228   -1.4654 H   0  0  0  0  0  0  0  0  0  0  0  0
   32.3247   -6.9783   -2.6031 H   0  0  0  0  0  0  0  0  0  0  0  0
   25.9970  -11.7325   -1.4714 H   0  0  0  0  0  0  0  0  0  0  0  0
   26.0616  -10.7415   -2.9604 H   0  0  0  0  0  0  0  0  0  0  0  0
   24.7897   -9.5647   -1.2093 H   0  0  0  0  0  0  0  0  0  0  0  0
   26.1528   -9.7445   -0.0675 H   0  0  0  0  0  0  0  0  0  0  0  0
   29.2474  -11.7924   -3.1700 H   0  0  0  0  0  0  0  0  0  0  0  0
   27.5611  -12.3174   -3.3218 H   0  0  0  0  0  0  0  0  0  0  0  0
   27.9993  -13.1019   -0.7369 H   0  0  0  0  0  0  0  0  0  0  0  0
   27.2714  -14.3371   -2.5694 H   0  0  0  0  0  0  0  0  0  0  0  0
   30.4342  -12.4245   -0.7985 H   0  0  0  0  0  0  0  0  0  0  0  0
   30.6714  -13.5342   -2.1688 H   0  0  0  0  0  0  0  0  0  0  0  0
   30.0435  -15.4569   -0.7355 H   0  0  0  0  0  0  0  0  0  0  0  0
   32.2350  -13.6488    0.4135 H   0  0  0  0  0  0  0  0  0  0  0  0
   32.4299  -14.7771   -0.9350 H   0  0  0  0  0  0  0  0  0  0  0  0
   31.4580  -17.3399   -0.2068 H   0  0  0  0  0  0  0  0  0  0  0  0
   32.0573  -19.1107    1.4227 H   0  0  0  0  0  0  0  0  0  0  0  0
   33.2166  -18.4892    3.5441 H   0  0  0  0  0  0  0  0  0  0  0  0
   33.7725  -16.1176    4.0178 H   0  0  0  0  0  0  0  0  0  0  0  0
   33.1713  -14.3380    2.3913 H   0  0  0  0  0  0  0  0  0  0  0  0
   28.8896  -16.2121    0.8892 H   0  0  0  0  0  0  0  0  0  0  0  0
   29.2066  -14.8244    3.4778 H   0  0  0  0  0  0  0  0  0  0  0  0
   30.0224  -17.0028    3.8384 H   0  0  0  0  0  0  0  0  0  0  0  0
   29.0034  -18.8493    2.9243 H   0  0  0  0  0  0  0  0  0  0  0  0
   28.4146  -16.6753    5.5438 H   0  0  0  0  0  0  0  0  0  0  0  0
   27.7541  -18.1736    4.7915 H   0  0  0  0  0  0  0  0  0  0  0  0
   25.1234  -17.0518    5.3895 H   0  0  0  0  0  0  0  0  0  0  0  0
   23.4617  -15.5434    4.3338 H   0  0  0  0  0  0  0  0  0  0  0  0
   24.1377  -13.9823    2.5325 H   0  0  0  0  0  0  0  0  0  0  0  0
   26.5034  -13.9016    1.7788 H   0  0  0  0  0  0  0  0  0  0  0  0
   26.2437   -7.3942    0.2926 H   0  0  0  0  0  0  0  0  0  0  0  0
   24.8497   -7.1949   -0.7964 H   0  0  0  0  0  0  0  0  0  0  0  0
   25.3431   -5.6795   -2.9468 H   0  0  0  0  0  0  0  0  0  0  0  0
   27.4676   -2.2057   -1.9765 H   0  0  0  0  0  0  0  0  0  0  0  0
   28.2562   -3.1876    0.1395 H   0  0  0  0  0  0  0  0  0  0  0  0
   27.5602   -5.5111    0.7378 H   0  0  0  0  0  0  0  0  0  0  0  0
   28.1729  -10.9154   -0.8898 H   0  0  0  0  0  0  0  0  0  0  0  0
  1  2  1  0  0  0  0
  1 13  1  0  0  0  0
  1 39  1  0  0  0  0
  2  3  1  0  0  0  0
  2 46  1  0  0  0  0
  2 47  1  0  0  0  0
  3  4  1  0  0  0  0
  3 11  1  0  0  0  0
  3 48  1  6  0  0  0
  4  5  2  0  0  0  0
  4  6  1  0  0  0  0
  6  7  1  0  0  0  0
  6 49  1  0  0  0  0
  7  8  1  0  0  0  0
  7  9  1  0  0  0  0
  7 10  1  0  0  0  0
  8 50  1  0  0  0  0
  8 51  1  0  0  0  0
  8 52  1  0  0  0  0
  9 53  1  0  0  0  0
  9 54  1  0  0  0  0
  9 55  1  0  0  0  0
 10 56  1  0  0  0  0
 10 57  1  0  0  0  0
 10 58  1  0  0  0  0
 11 12  1  0  0  0  0
 11 14  1  0  0  0  0
 11 93  1  1  0  0  0
 12 13  1  0  0  0  0
 12 59  1  0  0  0  0
 12 60  1  0  0  0  0
 13 61  1  0  0  0  0
 13 62  1  0  0  0  0
 14 15  1  0  0  0  0
 14 63  1  0  0  0  0
 14 64  1  0  0  0  0
 15 16  1  0  0  0  0
 15 17  1  0  0  0  0
 15 65  1  1  0  0  0
 16 66  1  0  0  0  0
 17 18  1  0  0  0  0
 17 67  1  0  0  0  0
 17 68  1  0  0  0  0
 18 19  1  0  0  0  0
 18 26  1  0  0  0  0
 18 69  1  6  0  0  0
 19 20  1  0  0  0  0
 19 70  1  0  0  0  0
 19 71  1  0  0  0  0
 20 21  2  0  0  0  0
 20 25  1  0  0  0  0
 21 22  1  0  0  0  0
 21 72  1  0  0  0  0
 22 23  2  0  0  0  0
 22 73  1  0  0  0  0
 23 24  1  0  0  0  0
 23 74  1  0  0  0  0
 24 25  2  0  0  0  0
 24 75  1  0  0  0  0
 25 76  1  0  0  0  0
 26 27  2  0  0  0  0
 26 28  1  0  0  0  0
 28 29  1  0  0  0  0
 28 77  1  0  0  0  0
 29 30  1  0  0  0  0
 29 38  1  0  0  0  0
 29 78  1  1  0  0  0
 30 31  1  0  0  0  0
 30 32  1  0  0  0  0
 30 79  1  1  0  0  0
 31 80  1  0  0  0  0
 32 33  1  0  0  0  0
 32 81  1  0  0  0  0
 32 82  1  0  0  0  0
 33 34  2  0  0  0  0
 33 38  1  0  0  0  0
 34 35  1  0  0  0  0
 34 83  1  0  0  0  0
 35 36  2  0  0  0  0
 35 84  1  0  0  0  0
 36 37  1  0  0  0  0
 36 85  1  0  0  0  0
 37 38  2  0  0  0  0
 37 86  1  0  0  0  0
 39 40  1  0  0  0  0
 39 87  1  0  0  0  0
 39 88  1  0  0  0  0
 40 41  2  0  0  0  0
 40 45  1  0  0  0  0
 41 42  1  0  0  0  0
 41 89  1  0  0  0  0
 42 43  2  0  0  0  0
 43 44  1  0  0  0  0
 43 90  1  0  0  0  0
 44 45  2  0  0  0  0
 44 91  1  0  0  0  0
 45 92  1  0  0  0  0
M  CHG  1  11   1
M  END
$$$$
