MLZ
 OpenBabel04051919523D

 28 27  0  0  1  0  0  0  0  0999 V2000
   17.6600   40.2823   48.9589 N   0  3  0  0  0  0  0  0  0  0  0  0
   17.3623   41.6946   49.3795 C   0  0  1  0  0  0  0  0  0  0  0  0
   17.0766   41.6761   50.8786 C   0  0  0  0  0  0  0  0  0  0  0  0
   16.7226   43.0591   51.4290 C   0  0  0  0  0  0  0  0  0  0  0  0
   16.2195   42.9501   52.8694 C   0  0  0  0  0  0  0  0  0  0  0  0
   15.8912   44.3333   53.3881 C   0  0  0  0  0  0  0  0  0  0  0  0
   15.3525   44.2677   54.7715 N   0  3  0  0  0  0  0  0  0  0  0  0
   15.1103   45.6435   55.2925 C   0  0  0  0  0  0  0  0  0  0  0  0
   18.5443   42.6411   49.0895 C   0  0  0  0  0  0  0  0  0  0  0  0
   18.2265   43.7435   48.5780 O   0  0  0  0  0  0  0  0  0  0  0  0
   19.6595   42.1106   49.3599 O   0  0  0  0  0  0  0  0  0  0  0  0
   17.9109   40.2879   47.9633 H   0  0  0  0  0  0  0  0  0  0  0  0
   18.5290   40.0112   49.4397 H   0  0  0  0  0  0  0  0  0  0  0  0
   16.4741   41.9961   48.8164 H   0  0  0  0  0  0  0  0  0  0  0  0
   17.9437   41.2925   51.4391 H   0  0  0  0  0  0  0  0  0  0  0  0
   16.2423   40.9935   51.0787 H   0  0  0  0  0  0  0  0  0  0  0  0
   15.9519   43.5221   50.8010 H   0  0  0  0  0  0  0  0  0  0  0  0
   17.6036   43.7114   51.4000 H   0  0  0  0  0  0  0  0  0  0  0  0
   16.9880   42.4832   53.4940 H   0  0  0  0  0  0  0  0  0  0  0  0
   15.3316   42.3101   52.9008 H   0  0  0  0  0  0  0  0  0  0  0  0
   15.1205   44.8124   52.7715 H   0  0  0  0  0  0  0  0  0  0  0  0
   16.7893   44.9596   53.4204 H   0  0  0  0  0  0  0  0  0  0  0  0
   14.4693   43.7332   54.7922 H   0  0  0  0  0  0  0  0  0  0  0  0
   14.7126   45.5662   56.3088 H   0  0  0  0  0  0  0  0  0  0  0  0
   14.3905   46.1256   54.6278 H   0  0  0  0  0  0  0  0  0  0  0  0
   16.0660   46.1715   55.2866 H   0  0  0  0  0  0  0  0  0  0  0  0
   16.8923   39.6228   49.1434 H   0  0  0  0  0  0  0  0  0  0  0  0
   16.0052   43.7698   55.3997 H   0  0  0  0  0  0  0  0  0  0  0  0
  1  2  1  0  0  0  0
  1 12  1  0  0  0  0
  1 13  1  0  0  0  0
  1 27  1  0  0  0  0
  2  3  1  0  0  0  0
  2  9  1  0  0  0  0
  2 14  1  6  0  0  0
  3  4  1  0  0  0  0
  3 15  1  0  0  0  0
  3 16  1  0  0  0  0
  4  5  1  0  0  0  0
  4 17  1  0  0  0  0
  4 18  1  0  0  0  0
  5  6  1  0  0  0  0
  5 19  1  0  0  0  0
  5 20  1  0  0  0  0
  6  7  1  0  0  0  0
  6 21  1  0  0  0  0
  6 22  1  0  0  0  0
  7  8  1  0  0  0  0
  7 23  1  0  0  0  0
  7 28  1  0  0  0  0
  8 24  1  0  0  0  0
  8 25  1  0  0  0  0
  8 26  1  0  0  0  0
  9 10  2  0  0  0  0
  9 11  1  0  0  0  0
M  CHG  2   1   1   7   1
M  END
$$$$
