MLZ
 OpenBabel04051919183D

 28 27  0  0  1  0  0  0  0  0999 V2000
  -26.9862  -20.5140  -15.8353 N   0  3  0  0  0  0  0  0  0  0  0  0
  -26.4418  -20.5525  -17.2405 C   0  0  1  0  0  0  0  0  0  0  0  0
  -25.1455  -19.7245  -17.2894 C   0  0  0  0  0  0  0  0  0  0  0  0
  -25.0555  -19.0219  -18.6442 C   0  0  0  0  0  0  0  0  0  0  0  0
  -23.7973  -18.1766  -18.8127 C   0  0  0  0  0  0  0  0  0  0  0  0
  -23.5432  -18.0569  -20.3305 C   0  0  0  0  0  0  0  0  0  0  0  0
  -22.6677  -16.8822  -20.6272 N   0  3  0  0  0  0  0  0  0  0  0  0
  -22.7034  -16.4419  -22.0528 C   0  0  0  0  0  0  0  0  0  0  0  0
  -26.1227  -21.9911  -17.7253 C   0  0  0  0  0  0  0  0  0  0  0  0
  -25.4623  -22.6481  -16.8738 O   0  0  0  0  0  0  0  0  0  0  0  0
  -26.6390  -22.3006  -18.8262 O   0  0  0  0  0  0  0  0  0  0  0  0
  -27.8260  -21.1080  -15.8104 H   0  0  0  0  0  0  0  0  0  0  0  0
  -26.3018  -20.9884  -15.2265 H   0  0  0  0  0  0  0  0  0  0  0  0
  -27.2257  -20.1108  -17.8621 H   0  0  0  0  0  0  0  0  0  0  0  0
  -24.2609  -20.3654  -17.1632 H   0  0  0  0  0  0  0  0  0  0  0  0
  -25.1191  -18.9770  -16.4879 H   0  0  0  0  0  0  0  0  0  0  0  0
  -25.9264  -18.3644  -18.7573 H   0  0  0  0  0  0  0  0  0  0  0  0
  -25.1193  -19.7778  -19.4278 H   0  0  0  0  0  0  0  0  0  0  0  0
  -22.9315  -18.6530  -18.3371 H   0  0  0  0  0  0  0  0  0  0  0  0
  -23.9342  -17.1920  -18.3562 H   0  0  0  0  0  0  0  0  0  0  0  0
  -24.4707  -17.9177  -20.8823 H   0  0  0  0  0  0  0  0  0  0  0  0
  -23.0232  -18.9511  -20.6992 H   0  0  0  0  0  0  0  0  0  0  0  0
  -22.9509  -16.0917  -20.0393 H   0  0  0  0  0  0  0  0  0  0  0  0
  -22.0316  -15.5866  -22.1328 H   0  0  0  0  0  0  0  0  0  0  0  0
  -23.7289  -16.1491  -22.2950 H   0  0  0  0  0  0  0  0  0  0  0  0
  -22.3614  -17.2688  -22.6759 H   0  0  0  0  0  0  0  0  0  0  0  0
  -27.2074  -19.5729  -15.5126 H   0  0  0  0  0  0  0  0  0  0  0  0
  -21.7000  -17.1097  -20.3602 H   0  0  0  0  0  0  0  0  0  0  0  0
  1  2  1  0  0  0  0
  1 12  1  0  0  0  0
  1 13  1  0  0  0  0
  1 27  1  0  0  0  0
  2  3  1  0  0  0  0
  2  9  1  0  0  0  0
  2 14  1  6  0  0  0
  3  4  1  0  0  0  0
  3 15  1  0  0  0  0
  3 16  1  0  0  0  0
  4  5  1  0  0  0  0
  4 17  1  0  0  0  0
  4 18  1  0  0  0  0
  5  6  1  0  0  0  0
  5 19  1  0  0  0  0
  5 20  1  0  0  0  0
  6  7  1  0  0  0  0
  6 21  1  0  0  0  0
  6 22  1  0  0  0  0
  7  8  1  0  0  0  0
  7 23  1  0  0  0  0
  7 28  1  0  0  0  0
  8 24  1  0  0  0  0
  8 25  1  0  0  0  0
  8 26  1  0  0  0  0
  9 10  2  0  0  0  0
  9 11  1  0  0  0  0
M  CHG  2   1   1   7   1
M  END
$$$$
