MSN
 OpenBabel04051917543D

 25 25  0  0  1  0  0  0  0  0999 V2000
   31.3441   65.8674    9.4451 C   0  0  1  0  0  0  0  0  0  0  0  0
   31.1896   64.4680    9.9652 N   0  3  0  0  0  0  0  0  0  0  0  0
   32.8324   66.2601    9.4817 C   0  0  1  0  0  0  0  0  0  0  0  0
   33.6135   65.1250    9.8797 O   0  0  0  0  0  0  0  0  0  0  0  0
   33.1574   66.7821    8.0724 C   0  0  1  0  0  0  0  0  0  0  0  0
   33.7993   65.7574    7.3211 O   0  0  0  0  0  0  0  0  0  0  0  0
   31.7878   67.1256    7.4530 C   0  0  1  0  0  0  0  0  0  0  0  0
   31.8038   67.1710    6.0376 O   0  0  0  0  0  0  0  0  0  0  0  0
   30.8661   66.0069    7.9982 C   0  0  2  0  0  0  0  0  0  0  0  0
   29.0952   66.5200    7.9009 S   0  0  0  0  0  0  0  0  0  0  0  0
   28.3140   65.3909    9.0858 C   0  0  0  0  0  0  0  0  0  0  0  0
   30.7932   66.5266   10.1266 H   0  0  0  0  0  0  0  0  0  0  0  0
   30.2446   64.0793    9.9564 H   0  0  0  0  0  0  0  0  0  0  0  0
   31.8089   63.8395    9.4169 H   0  0  0  0  0  0  0  0  0  0  0  0
   32.9716   67.0445   10.2288 H   0  0  0  0  0  0  0  0  0  0  0  0
   34.5444   65.4111    9.9536 H   0  0  0  0  0  0  0  0  0  0  0  0
   33.8017   67.6668    8.0963 H   0  0  0  0  0  0  0  0  0  0  0  0
   34.7171   65.6680    7.6389 H   0  0  0  0  0  0  0  0  0  0  0  0
   31.4507   68.1023    7.8285 H   0  0  0  0  0  0  0  0  0  0  0  0
   32.3423   67.9367    5.7510 H   0  0  0  0  0  0  0  0  0  0  0  0
   30.9942   65.0817    7.4181 H   0  0  0  0  0  0  0  0  0  0  0  0
   27.2409   65.6170    9.1422 H   0  0  0  0  0  0  0  0  0  0  0  0
   28.7208   65.5188   10.0889 H   0  0  0  0  0  0  0  0  0  0  0  0
   28.4288   64.3563    8.7522 H   0  0  0  0  0  0  0  0  0  0  0  0
   31.5597   64.4124   10.9176 H   0  0  0  0  0  0  0  0  0  0  0  0
  1  2  1  0  0  0  0
  1  3  1  0  0  0  0
  1  9  1  0  0  0  0
  1 12  1  1  0  0  0
  2 13  1  0  0  0  0
  2 14  1  0  0  0  0
  2 25  1  0  0  0  0
  3  4  1  0  0  0  0
  3  5  1  0  0  0  0
  3 15  1  1  0  0  0
  4 16  1  0  0  0  0
  5  6  1  0  0  0  0
  5  7  1  0  0  0  0
  5 17  1  1  0  0  0
  6 18  1  0  0  0  0
  7  8  1  0  0  0  0
  7  9  1  0  0  0  0
  7 19  1  1  0  0  0
  8 20  1  0  0  0  0
  9 10  1  0  0  0  0
  9 21  1  6  0  0  0
 10 11  1  0  0  0  0
 11 22  1  0  0  0  0
 11 23  1  0  0  0  0
 11 24  1  0  0  0  0
M  CHG  1   2   1
M  END
$$$$
