MTX
 OpenBabel04051917403D

 53 55  0  0  1  0  0  0  0  0999 V2000
   16.7003   65.1718   45.8930 N   0  0  0  0  0  0  0  0  0  0  0  0
   16.1068   65.3842   47.0711 C   0  0  0  0  0  0  0  0  0  0  0  0
   14.8601   64.8466   47.2363 N   0  0  0  0  0  0  0  0  0  0  0  0
   16.6719   66.0369   48.0871 N   0  0  0  0  0  0  0  0  0  0  0  0
   17.9054   66.5147   47.8935 C   0  0  0  0  0  0  0  0  0  0  0  0
   18.5595   67.1009   48.9824 N   0  0  0  0  0  0  0  0  0  0  0  0
   18.6058   66.3853   46.6946 C   0  0  0  0  0  0  0  0  0  0  0  0
   19.8504   66.9177   46.5176 N   0  0  0  0  0  0  0  0  0  0  0  0
   20.4038   66.7809   45.2837 C   0  0  0  0  0  0  0  0  0  0  0  0
   19.7404   66.0437   44.3210 C   0  0  0  0  0  0  0  0  0  0  0  0
   18.5221   65.4699   44.5303 N   0  0  0  0  0  0  0  0  0  0  0  0
   17.9189   65.6727   45.7080 C   0  0  0  0  0  0  0  0  0  0  0  0
   21.7198   67.4976   45.0518 C   0  0  0  0  0  0  0  0  0  0  0  0
   22.0947   67.6876   43.6465 N   0  0  0  0  0  0  0  0  0  0  0  0
   23.1761   66.8491   43.1446 C   0  0  0  0  0  0  0  0  0  0  0  0
   19.6964   69.9387   41.0526 C   0  0  0  0  0  0  0  0  0  0  0  0
   20.7634   69.2128   40.5534 C   0  0  0  0  0  0  0  0  0  0  0  0
   21.5544   68.4913   41.4220 C   0  0  0  0  0  0  0  0  0  0  0  0
   21.3184   68.4643   42.8083 C   0  0  0  0  0  0  0  0  0  0  0  0
   20.2353   69.2444   43.2837 C   0  0  0  0  0  0  0  0  0  0  0  0
   19.4156   69.9589   42.4174 C   0  0  0  0  0  0  0  0  0  0  0  0
   18.9509   70.7509   40.0884 C   0  0  0  0  0  0  0  0  0  0  0  0
   19.5440   71.1692   39.1018 O   0  0  0  0  0  0  0  0  0  0  0  0
   17.6470   70.9638   40.4088 N   0  0  0  0  0  0  0  0  0  0  0  0
   16.8499   72.0082   39.7654 C   0  0  2  0  0  0  0  0  0  0  0  0
   16.2465   73.0155   40.7985 C   0  0  0  0  0  0  0  0  0  0  0  0
   16.1788   72.5740   41.9939 O   0  0  0  0  0  0  0  0  0  0  0  0
   15.8905   74.1443   40.3562 O   0  0  0  0  0  0  0  0  0  0  0  0
   15.6196   71.3692   39.1325 C   0  0  0  0  0  0  0  0  0  0  0  0
   15.9824   70.3705   38.0360 C   0  0  0  0  0  0  0  0  0  0  0  0
   16.1065   70.9629   36.6301 C   0  0  0  0  0  0  0  0  0  0  0  0
   16.7766   70.2367   35.8164 O   0  0  0  0  0  0  0  0  0  0  0  0
   15.4824   72.0281   36.3775 O   0  0  0  0  0  0  0  0  0  0  0  0
   14.3975   64.5498   46.3863 H   0  0  0  0  0  0  0  0  0  0  0  0
   14.3283   65.1551   48.0338 H   0  0  0  0  0  0  0  0  0  0  0  0
   19.4483   67.5496   48.7877 H   0  0  0  0  0  0  0  0  0  0  0  0
   18.0379   67.2958   49.8232 H   0  0  0  0  0  0  0  0  0  0  0  0
   20.1397   65.9123   43.3188 H   0  0  0  0  0  0  0  0  0  0  0  0
   22.5014   66.9241   45.5640 H   0  0  0  0  0  0  0  0  0  0  0  0
   21.6980   68.4755   45.5533 H   0  0  0  0  0  0  0  0  0  0  0  0
   23.4536   66.9988   42.1005 H   0  0  0  0  0  0  0  0  0  0  0  0
   22.9027   65.7956   43.2443 H   0  0  0  0  0  0  0  0  0  0  0  0
   24.0901   67.0510   43.7084 H   0  0  0  0  0  0  0  0  0  0  0  0
   20.9849   69.2117   39.4880 H   0  0  0  0  0  0  0  0  0  0  0  0
   22.3598   67.9548   40.9414 H   0  0  0  0  0  0  0  0  0  0  0  0
   19.9925   69.3227   44.3389 H   0  0  0  0  0  0  0  0  0  0  0  0
   18.5952   70.5542   42.8167 H   0  0  0  0  0  0  0  0  0  0  0  0
   17.2143   70.5782   41.2370 H   0  0  0  0  0  0  0  0  0  0  0  0
   17.4717   72.5290   39.0295 H   0  0  0  0  0  0  0  0  0  0  0  0
   14.9595   72.1522   38.7470 H   0  0  0  0  0  0  0  0  0  0  0  0
   15.0543   70.8447   39.9131 H   0  0  0  0  0  0  0  0  0  0  0  0
   15.1949   69.6062   38.0013 H   0  0  0  0  0  0  0  0  0  0  0  0
   16.9042   69.8292   38.2836 H   0  0  0  0  0  0  0  0  0  0  0  0
  1 12  2  0  0  0  0
  1  2  1  0  0  0  0
  2  4  2  0  0  0  0
  2  3  1  0  0  0  0
  3 34  1  0  0  0  0
  3 35  1  0  0  0  0
  4  5  1  0  0  0  0
  5  7  2  0  0  0  0
  5  6  1  0  0  0  0
  6 36  1  0  0  0  0
  6 37  1  0  0  0  0
  7 12  1  0  0  0  0
  7  8  1  0  0  0  0
  8  9  2  0  0  0  0
  9 13  1  0  0  0  0
  9 10  1  0  0  0  0
 10 11  2  0  0  0  0
 10 38  1  0  0  0  0
 11 12  1  0  0  0  0
 13 14  1  0  0  0  0
 13 39  1  0  0  0  0
 13 40  1  0  0  0  0
 14 19  1  0  0  0  0
 14 15  1  0  0  0  0
 15 41  1  0  0  0  0
 15 42  1  0  0  0  0
 15 43  1  0  0  0  0
 16 17  1  0  0  0  0
 16 22  1  0  0  0  0
 16 21  2  0  0  0  0
 17 18  2  0  0  0  0
 17 44  1  0  0  0  0
 18 19  1  0  0  0  0
 18 45  1  0  0  0  0
 19 20  2  0  0  0  0
 20 21  1  0  0  0  0
 20 46  1  0  0  0  0
 21 47  1  0  0  0  0
 22 24  1  0  0  0  0
 22 23  2  0  0  0  0
 24 25  1  0  0  0  0
 24 48  1  0  0  0  0
 25 29  1  0  0  0  0
 25 26  1  0  0  0  0
 25 49  1  6  0  0  0
 26 28  2  0  0  0  0
 26 27  1  0  0  0  0
 29 30  1  0  0  0  0
 29 50  1  0  0  0  0
 29 51  1  0  0  0  0
 30 31  1  0  0  0  0
 30 52  1  0  0  0  0
 30 53  1  0  0  0  0
 31 33  2  0  0  0  0
 31 32  1  0  0  0  0
M  END
$$$$
