MUV
 OpenBabel04051918493D

 64 66  0  0  1  0  0  0  0  0999 V2000
   23.6940   25.1105   11.5671 O   0  0  0  0  0  0  0  0  0  0  0  0
   22.9395   25.7197   10.8447 C   0  0  0  0  0  0  0  0  0  0  0  0
   22.9386   25.5896    9.4660 N   0  0  0  0  0  0  0  0  0  0  0  0
   23.8457   24.6785    8.8041 C   0  0  0  0  0  0  0  0  0  0  0  0
   21.9118   26.6802   11.3908 C   0  0  0  0  0  0  0  0  0  0  0  0
   22.5983   27.7032   12.2757 C   0  0  0  0  0  0  0  0  0  0  0  0
   21.5516   28.6709   12.7643 C   0  0  0  0  0  0  0  0  0  0  0  0
   21.3965   29.7653   12.2360 O   0  0  0  0  0  0  0  0  0  0  0  0
   20.7543   28.2038   13.7768 N   0  0  0  0  0  0  0  0  0  0  0  0
   19.6451   28.9786   14.3383 C   0  0  1  0  0  0  0  0  0  0  0  0
   18.3693   28.1339   14.2389 C   0  0  0  0  0  0  0  0  0  0  0  0
   18.0798   27.7659   12.8067 C   0  0  0  0  0  0  0  0  0  0  0  0
   17.5557   28.7166   11.9281 C   0  0  0  0  0  0  0  0  0  0  0  0
   17.3198   28.3925   10.5946 C   0  0  0  0  0  0  0  0  0  0  0  0
   17.6193   27.1178   10.1219 C   0  0  0  0  0  0  0  0  0  0  0  0
   18.1491   26.1657   10.9882 C   0  0  0  0  0  0  0  0  0  0  0  0
   18.3823   26.4889   12.3236 C   0  0  0  0  0  0  0  0  0  0  0  0
   20.0073   29.3533   15.7887 C   0  0  2  0  0  0  0  0  0  0  0  0
   20.0662   28.1933   16.6321 O   0  0  0  0  0  0  0  0  0  0  0  0
   19.0739   30.3982   16.3958 C   0  0  0  0  0  0  0  0  0  0  0  0
   19.3461   31.6955   15.7727 N   0  0  0  0  0  0  0  0  0  0  0  0
   20.1106   32.6384   16.5919 C   0  0  0  0  0  0  0  0  0  0  0  0
   21.5399   32.1900   16.6732 C   0  0  0  0  0  0  0  0  0  0  0  0
   22.4263   32.3371   15.4495 C   0  0  0  0  0  0  0  0  0  0  0  0
   22.6366   33.2271   16.6511 C   0  0  0  0  0  0  0  0  0  0  0  0
   18.1170   32.3414   14.8174 S   0  0  0  0  0  0  0  0  0  0  0  0
   18.6648   33.4105   14.0411 O   0  0  0  0  0  0  0  0  0  0  0  0
   17.3539   31.2438   14.2899 O   0  0  0  0  0  0  0  0  0  0  0  0
   16.9421   33.1101   15.9050 C   0  0  0  0  0  0  0  0  0  0  0  0
   16.6960   34.4633   15.9704 O   0  0  0  0  0  0  0  0  0  0  0  0
   15.6737   34.6274   16.8438 C   0  0  0  0  0  0  0  0  0  0  0  0
   15.2696   33.4184   17.3554 C   0  0  0  0  0  0  0  0  0  0  0  0
   16.0737   32.4410   16.7454 C   0  0  0  0  0  0  0  0  0  0  0  0
   22.3031   26.1411    8.9088 H   0  0  0  0  0  0  0  0  0  0  0  0
   23.6775   24.7300    7.7251 H   0  0  0  0  0  0  0  0  0  0  0  0
   23.6613   23.6611    9.1558 H   0  0  0  0  0  0  0  0  0  0  0  0
   24.8793   24.9533    9.0294 H   0  0  0  0  0  0  0  0  0  0  0  0
   21.1984   26.1088   11.9947 H   0  0  0  0  0  0  0  0  0  0  0  0
   21.3590   27.1949   10.5975 H   0  0  0  0  0  0  0  0  0  0  0  0
   23.3524   28.2641   11.7043 H   0  0  0  0  0  0  0  0  0  0  0  0
   23.1147   27.2275   13.1219 H   0  0  0  0  0  0  0  0  0  0  0  0
   20.9120   27.2808   14.1535 H   0  0  0  0  0  0  0  0  0  0  0  0
   19.5088   29.9001   13.7592 H   0  0  0  0  0  0  0  0  0  0  0  0
   17.5111   28.6743   14.6516 H   0  0  0  0  0  0  0  0  0  0  0  0
   18.4861   27.2150   14.8276 H   0  0  0  0  0  0  0  0  0  0  0  0
   17.3306   29.7179   12.2860 H   0  0  0  0  0  0  0  0  0  0  0  0
   16.8981   29.1372    9.9248 H   0  0  0  0  0  0  0  0  0  0  0  0
   17.4386   26.8664    9.0811 H   0  0  0  0  0  0  0  0  0  0  0  0
   18.3757   25.1681   10.6256 H   0  0  0  0  0  0  0  0  0  0  0  0
   18.8103   25.7428   12.9862 H   0  0  0  0  0  0  0  0  0  0  0  0
   21.0192   29.7705   15.7750 H   0  0  0  0  0  0  0  0  0  0  0  0
   19.1898   27.7660   16.6306 H   0  0  0  0  0  0  0  0  0  0  0  0
   19.2155   30.4713   17.4787 H   0  0  0  0  0  0  0  0  0  0  0  0
   18.0291   30.1029   16.2505 H   0  0  0  0  0  0  0  0  0  0  0  0
   19.6586   32.6852   17.5889 H   0  0  0  0  0  0  0  0  0  0  0  0
   20.0679   33.6441   16.1591 H   0  0  0  0  0  0  0  0  0  0  0  0
   21.6541   31.3079   17.2998 H   0  0  0  0  0  0  0  0  0  0  0  0
   21.9919   32.7524   14.5410 H   0  0  0  0  0  0  0  0  0  0  0  0
   23.1634   31.5757   15.2123 H   0  0  0  0  0  0  0  0  0  0  0  0
   23.5223   33.0927   17.2612 H   0  0  0  0  0  0  0  0  0  0  0  0
   22.3520   34.2744   16.5913 H   0  0  0  0  0  0  0  0  0  0  0  0
   15.3092   35.6298   17.0394 H   0  0  0  0  0  0  0  0  0  0  0  0
   14.4886   33.2656   18.0533 H   0  0  0  0  0  0  0  0  0  0  0  0
   16.0415   31.3628   16.8554 H   0  0  0  0  0  0  0  0  0  0  0  0
  1  2  2  0  0  0  0
  2  3  1  0  0  0  0
  2  5  1  0  0  0  0
  3  4  1  0  0  0  0
  3 34  1  0  0  0  0
  4 35  1  0  0  0  0
  4 36  1  0  0  0  0
  4 37  1  0  0  0  0
  5  6  1  0  0  0  0
  5 38  1  0  0  0  0
  5 39  1  0  0  0  0
  6  7  1  0  0  0  0
  6 40  1  0  0  0  0
  6 41  1  0  0  0  0
  7  8  2  0  0  0  0
  7  9  1  0  0  0  0
  9 10  1  0  0  0  0
  9 42  1  0  0  0  0
 10 11  1  0  0  0  0
 10 18  1  0  0  0  0
 10 43  1  6  0  0  0
 11 12  1  0  0  0  0
 11 44  1  0  0  0  0
 11 45  1  0  0  0  0
 12 13  2  0  0  0  0
 12 17  1  0  0  0  0
 13 14  1  0  0  0  0
 13 46  1  0  0  0  0
 14 15  2  0  0  0  0
 14 47  1  0  0  0  0
 15 16  1  0  0  0  0
 15 48  1  0  0  0  0
 16 17  2  0  0  0  0
 16 49  1  0  0  0  0
 17 50  1  0  0  0  0
 18 19  1  0  0  0  0
 18 20  1  0  0  0  0
 18 51  1  6  0  0  0
 19 52  1  0  0  0  0
 20 21  1  0  0  0  0
 20 53  1  0  0  0  0
 20 54  1  0  0  0  0
 21 22  1  0  0  0  0
 21 26  1  0  0  0  0
 22 23  1  0  0  0  0
 22 55  1  0  0  0  0
 22 56  1  0  0  0  0
 23 24  1  0  0  0  0
 23 25  1  0  0  0  0
 23 57  1  0  0  0  0
 24 25  1  0  0  0  0
 24 58  1  0  0  0  0
 24 59  1  0  0  0  0
 25 60  1  0  0  0  0
 25 61  1  0  0  0  0
 26 27  2  0  0  0  0
 26 28  2  0  0  0  0
 26 29  1  0  0  0  0
 29 30  1  0  0  0  0
 29 33  2  0  0  0  0
 30 31  1  0  0  0  0
 31 32  2  0  0  0  0
 31 62  1  0  0  0  0
 32 33  1  0  0  0  0
 32 63  1  0  0  0  0
 33 64  1  0  0  0  0
M  END
$$$$
