MVL
 OpenBabel04051919433D

 26 27  0  0  1  0  0  0  0  0999 V2000
   27.2785   45.6748   -1.8696 C   0  0  0  0  0  0  0  0  0  0  0  0
   26.8727   46.8577   -2.4413 N   0  3  0  0  0  0  0  0  0  0  0  0
   27.7663   46.8374    0.3054 C   0  0  2  0  0  0  0  0  0  0  0  0
   27.5046   48.1537   -0.4937 C   0  0  1  0  0  0  0  0  0  0  0  0
   26.4515   47.9771   -1.6088 C   0  0  1  0  0  0  0  0  0  0  0  0
   26.1233   49.2732   -2.3706 C   0  0  0  0  0  0  0  0  0  0  0  0
   27.5692   45.4943   -3.9720 C   0  0  0  0  0  0  0  0  0  0  0  0
   27.0783   46.7656   -3.7780 C   0  0  0  0  0  0  0  0  0  0  0  0
   27.6555   44.8110   -2.7786 N   0  0  0  0  0  0  0  0  0  0  0  0
   29.1852   46.7283    0.5427 O   0  0  0  0  0  0  0  0  0  0  0  0
   27.9588   44.4110    0.0445 O   0  0  0  0  0  0  0  0  0  0  0  0
   27.0792   49.1683    0.4269 O   0  0  0  0  0  0  0  0  0  0  0  0
   27.2226   45.5562   -0.3778 C   0  0  2  0  0  0  0  0  0  0  0  0
   27.1813   49.7796   -3.1755 O   0  0  0  0  0  0  0  0  0  0  0  0
   27.3230   46.9045    1.3064 H   0  0  0  0  0  0  0  0  0  0  0  0
   28.4554   48.4907   -0.9289 H   0  0  0  0  0  0  0  0  0  0  0  0
   25.5086   47.6609   -1.1381 H   0  0  0  0  0  0  0  0  0  0  0  0
   25.8290   50.0675   -1.6769 H   0  0  0  0  0  0  0  0  0  0  0  0
   25.2641   49.1037   -3.0300 H   0  0  0  0  0  0  0  0  0  0  0  0
   27.8755   45.0420   -4.9081 H   0  0  0  0  0  0  0  0  0  0  0  0
   26.9031   47.5753   -4.4736 H   0  0  0  0  0  0  0  0  0  0  0  0
   29.3285   45.7961    0.8117 H   0  0  0  0  0  0  0  0  0  0  0  0
   27.7422   43.7079   -0.6023 H   0  0  0  0  0  0  0  0  0  0  0  0
   27.2381   50.0395    0.0227 H   0  0  0  0  0  0  0  0  0  0  0  0
   26.1747   45.4072   -0.0850 H   0  0  0  0  0  0  0  0  0  0  0  0
   28.0179   49.7735   -2.6833 H   0  0  0  0  0  0  0  0  0  0  0  0
  1  2  2  0  0  0  0
  1  9  1  0  0  0  0
  1 13  1  0  0  0  0
  2  5  1  0  0  0  0
  2  8  1  0  0  0  0
  3  4  1  0  0  0  0
  3 10  1  0  0  0  0
  3 13  1  0  0  0  0
  3 15  1  1  0  0  0
  4  5  1  0  0  0  0
  4 12  1  0  0  0  0
  4 16  1  6  0  0  0
  5  6  1  0  0  0  0
  5 17  1  1  0  0  0
  6 14  1  0  0  0  0
  6 18  1  0  0  0  0
  6 19  1  0  0  0  0
  7  8  2  0  0  0  0
  7  9  1  0  0  0  0
  7 20  1  0  0  0  0
  8 21  1  0  0  0  0
 10 22  1  0  0  0  0
 11 13  1  0  0  0  0
 11 23  1  0  0  0  0
 12 24  1  0  0  0  0
 13 25  1  1  0  0  0
 14 26  1  0  0  0  0
M  CHG  1   2   1
M  END
$$$$
