MZ1
 OpenBabel04051919023D

 67 69  0  0  1  0  0  0  0  0999 V2000
   22.2328   25.1458   11.8342 O   0  0  0  0  0  0  0  0  0  0  0  0
   21.9685   25.9313   10.9219 C   0  0  0  0  0  0  0  0  0  0  0  0
   21.4652   25.4393    9.5955 C   0  0  0  0  0  0  0  0  0  0  0  0
   22.1248   27.2872   11.0345 N   0  0  0  0  0  0  0  0  0  0  0  0
   22.5713   27.9034   12.2791 C   0  0  1  0  0  0  0  0  0  0  0  0
   23.9064   28.6024   12.0694 C   0  0  0  0  0  0  0  0  0  0  0  0
   21.5277   28.9287   12.7341 C   0  0  0  0  0  0  0  0  0  0  0  0
   21.2951   29.9509   12.0912 O   0  0  0  0  0  0  0  0  0  0  0  0
   20.8429   28.5727   13.8739 N   0  0  0  0  0  0  0  0  0  0  0  0
   19.7245   29.3659   14.3978 C   0  0  1  0  0  0  0  0  0  0  0  0
   18.4259   28.5374   14.2836 C   0  0  0  0  0  0  0  0  0  0  0  0
   18.1001   28.1789   12.8533 C   0  0  0  0  0  0  0  0  0  0  0  0
   17.5402   29.1338   11.9973 C   0  0  0  0  0  0  0  0  0  0  0  0
   17.2858   28.8220   10.6633 C   0  0  0  0  0  0  0  0  0  0  0  0
   17.5949   27.5558   10.1719 C   0  0  0  0  0  0  0  0  0  0  0  0
   18.1603   26.6011   11.0143 C   0  0  0  0  0  0  0  0  0  0  0  0
   18.4148   26.9100   12.3494 C   0  0  0  0  0  0  0  0  0  0  0  0
   20.0626   29.7867   15.8498 C   0  0  2  0  0  0  0  0  0  0  0  0
   20.0952   28.6349   16.7155 O   0  0  0  0  0  0  0  0  0  0  0  0
   19.1128   30.8508   16.4372 C   0  0  0  0  0  0  0  0  0  0  0  0
   19.3461   32.1823   15.8391 N   0  0  0  0  0  0  0  0  0  0  0  0
   18.1715   32.8609   14.8411 S   0  0  0  0  0  0  0  0  0  0  0  0
   18.8219   33.8219   13.9789 O   0  0  0  0  0  0  0  0  0  0  0  0
   17.3629   31.7994   14.2820 O   0  0  0  0  0  0  0  0  0  0  0  0
   17.1393   33.8052   15.9262 C   0  0  0  0  0  0  0  0  0  0  0  0
   17.2338   35.2037   15.8910 C   0  0  0  0  0  0  0  0  0  0  0  0
   16.3637   35.9656   16.6601 C   0  0  0  0  0  0  0  0  0  0  0  0
   16.4554   37.3023   16.6232 F   0  0  0  0  0  0  0  0  0  0  0  0
   16.1736   33.1914   16.7139 C   0  0  0  0  0  0  0  0  0  0  0  0
   16.0629   31.8592   16.7739 F   0  0  0  0  0  0  0  0  0  0  0  0
   15.3010   33.9633   17.4864 C   0  0  0  0  0  0  0  0  0  0  0  0
   15.4020   35.3508   17.4520 C   0  0  0  0  0  0  0  0  0  0  0  0
   14.5606   36.0904   18.1865 F   0  0  0  0  0  0  0  0  0  0  0  0
   20.1990   33.1055   16.6061 C   0  0  0  0  0  0  0  0  0  0  0  0
   21.6204   33.1000   16.1436 C   0  0  0  0  0  0  0  0  0  0  0  0
   22.7419   33.2441   16.9409 C   0  0  0  0  0  0  0  0  0  0  0  0
   23.9476   33.2195   16.1965 C   0  0  0  0  0  0  0  0  0  0  0  0
   23.7185   33.0742   14.8449 C   0  0  0  0  0  0  0  0  0  0  0  0
   22.0527   32.9974   14.4883 S   0  0  0  0  0  0  0  0  0  0  0  0
   21.2381   26.2548    8.9073 H   0  0  0  0  0  0  0  0  0  0  0  0
   20.5569   24.8502    9.7566 H   0  0  0  0  0  0  0  0  0  0  0  0
   22.2283   24.7960    9.1420 H   0  0  0  0  0  0  0  0  0  0  0  0
   21.7984   27.9066   10.3006 H   0  0  0  0  0  0  0  0  0  0  0  0
   22.6937   27.1380   13.0534 H   0  0  0  0  0  0  0  0  0  0  0  0
   24.2440   29.0733   12.9967 H   0  0  0  0  0  0  0  0  0  0  0  0
   23.8316   29.3836   11.3038 H   0  0  0  0  0  0  0  0  0  0  0  0
   24.6669   27.8861   11.7425 H   0  0  0  0  0  0  0  0  0  0  0  0
   21.0192   27.6720   14.3029 H   0  0  0  0  0  0  0  0  0  0  0  0
   19.6289   30.2709   13.7869 H   0  0  0  0  0  0  0  0  0  0  0  0
   17.5728   29.0718   14.7160 H   0  0  0  0  0  0  0  0  0  0  0  0
   18.5189   27.6073   14.8586 H   0  0  0  0  0  0  0  0  0  0  0  0
   17.3165   30.1344   12.3599 H   0  0  0  0  0  0  0  0  0  0  0  0
   16.8524   29.5736   10.0096 H   0  0  0  0  0  0  0  0  0  0  0  0
   17.3960   27.3157    9.1317 H   0  0  0  0  0  0  0  0  0  0  0  0
   18.4068   25.6152   10.6324 H   0  0  0  0  0  0  0  0  0  0  0  0
   18.8785   26.1614   12.9878 H   0  0  0  0  0  0  0  0  0  0  0  0
   21.0867   30.1789   15.8623 H   0  0  0  0  0  0  0  0  0  0  0  0
   19.2109   28.2319   16.7328 H   0  0  0  0  0  0  0  0  0  0  0  0
   19.2410   30.8933   17.5250 H   0  0  0  0  0  0  0  0  0  0  0  0
   18.0766   30.5340   16.3026 H   0  0  0  0  0  0  0  0  0  0  0  0
   17.9613   35.7079   15.2600 H   0  0  0  0  0  0  0  0  0  0  0  0
   14.5415   33.4907   18.0990 H   0  0  0  0  0  0  0  0  0  0  0  0
   20.1694   32.8327   17.6683 H   0  0  0  0  0  0  0  0  0  0  0  0
   19.8229   34.1312   16.5626 H   0  0  0  0  0  0  0  0  0  0  0  0
   22.6872   33.3635   18.0186 H   0  0  0  0  0  0  0  0  0  0  0  0
   24.9381   33.3041   16.6226 H   0  0  0  0  0  0  0  0  0  0  0  0
   24.4472   33.0228   14.0502 H   0  0  0  0  0  0  0  0  0  0  0  0
  1  2  2  0  0  0  0
  2  3  1  0  0  0  0
  2  4  1  0  0  0  0
  3 40  1  0  0  0  0
  3 41  1  0  0  0  0
  3 42  1  0  0  0  0
  4  5  1  0  0  0  0
  4 43  1  0  0  0  0
  5  6  1  0  0  0  0
  5  7  1  0  0  0  0
  5 44  1  1  0  0  0
  6 45  1  0  0  0  0
  6 46  1  0  0  0  0
  6 47  1  0  0  0  0
  7  8  2  0  0  0  0
  7  9  1  0  0  0  0
  9 10  1  0  0  0  0
  9 48  1  0  0  0  0
 10 11  1  0  0  0  0
 10 18  1  0  0  0  0
 10 49  1  6  0  0  0
 11 12  1  0  0  0  0
 11 50  1  0  0  0  0
 11 51  1  0  0  0  0
 12 13  2  0  0  0  0
 12 17  1  0  0  0  0
 13 14  1  0  0  0  0
 13 52  1  0  0  0  0
 14 15  2  0  0  0  0
 14 53  1  0  0  0  0
 15 16  1  0  0  0  0
 15 54  1  0  0  0  0
 16 17  2  0  0  0  0
 16 55  1  0  0  0  0
 17 56  1  0  0  0  0
 18 19  1  0  0  0  0
 18 20  1  0  0  0  0
 18 57  1  6  0  0  0
 19 58  1  0  0  0  0
 20 21  1  0  0  0  0
 20 59  1  0  0  0  0
 20 60  1  0  0  0  0
 21 22  1  0  0  0  0
 21 34  1  0  0  0  0
 22 23  2  0  0  0  0
 22 24  2  0  0  0  0
 22 25  1  0  0  0  0
 25 26  2  0  0  0  0
 25 29  1  0  0  0  0
 26 27  1  0  0  0  0
 26 61  1  0  0  0  0
 27 28  1  0  0  0  0
 27 32  2  0  0  0  0
 29 30  1  0  0  0  0
 29 31  2  0  0  0  0
 31 32  1  0  0  0  0
 31 62  1  0  0  0  0
 32 33  1  0  0  0  0
 34 35  1  0  0  0  0
 34 63  1  0  0  0  0
 34 64  1  0  0  0  0
 35 36  2  0  0  0  0
 35 39  1  0  0  0  0
 36 37  1  0  0  0  0
 36 65  1  0  0  0  0
 37 38  2  0  0  0  0
 37 66  1  0  0  0  0
 38 39  1  0  0  0  0
 38 67  1  0  0  0  0
M  END
$$$$
