MZ2
 OpenBabel04051919033D

 64 66  0  0  1  0  0  0  0  0999 V2000
   25.2876   26.9093   12.7350 F   0  0  0  0  0  0  0  0  0  0  0  0
   24.6679   27.0583   11.5342 C   0  0  0  0  0  0  0  0  0  0  0  0
   25.6278   27.4218   10.6473 F   0  0  0  0  0  0  0  0  0  0  0  0
   24.2340   25.8266   11.1683 F   0  0  0  0  0  0  0  0  0  0  0  0
   23.5360   28.0379   11.5982 C   0  0  0  0  0  0  0  0  0  0  0  0
   23.2351   28.7179   10.2921 C   0  0  0  0  0  0  0  0  0  0  0  0
   22.8943   28.2338   12.7672 C   0  0  0  0  0  0  0  0  0  0  0  0
   21.7386   29.1345   12.9935 C   0  0  0  0  0  0  0  0  0  0  0  0
   21.4284   30.0422   12.2403 O   0  0  0  0  0  0  0  0  0  0  0  0
   21.0738   28.8186   14.1487 N   0  0  0  0  0  0  0  0  0  0  0  0
   19.8393   29.4990   14.5534 C   0  0  1  0  0  0  0  0  0  0  0  0
   18.6279   28.5777   14.2808 C   0  0  0  0  0  0  0  0  0  0  0  0
   18.3756   28.3146   12.8156 C   0  0  0  0  0  0  0  0  0  0  0  0
   17.6758   29.2439   12.0371 C   0  0  0  0  0  0  0  0  0  0  0  0
   17.4697   29.0157   10.6775 C   0  0  0  0  0  0  0  0  0  0  0  0
   17.9623   27.8556   10.0825 C   0  0  0  0  0  0  0  0  0  0  0  0
   18.6621   26.9250   10.8472 C   0  0  0  0  0  0  0  0  0  0  0  0
   18.8676   27.1517   12.2078 C   0  0  0  0  0  0  0  0  0  0  0  0
   19.9943   29.8656   16.0523 C   0  0  2  0  0  0  0  0  0  0  0  0
   20.0061   28.6776   16.8653 O   0  0  0  0  0  0  0  0  0  0  0  0
   18.9453   30.8612   16.5780 C   0  0  0  0  0  0  0  0  0  0  0  0
   19.1573   32.1976   15.9887 N   0  0  0  0  0  0  0  0  0  0  0  0
   18.0100   32.8222   14.9275 S   0  0  0  0  0  0  0  0  0  0  0  0
   18.6749   33.7618   14.0474 O   0  0  0  0  0  0  0  0  0  0  0  0
   17.2195   31.7397   14.3911 O   0  0  0  0  0  0  0  0  0  0  0  0
   16.9615   33.7910   15.9602 C   0  0  0  0  0  0  0  0  0  0  0  0
   17.0869   35.1838   15.9217 C   0  0  0  0  0  0  0  0  0  0  0  0
   16.2150   35.9591   16.6705 C   0  0  0  0  0  0  0  0  0  0  0  0
   16.3373   37.2924   16.6406 F   0  0  0  0  0  0  0  0  0  0  0  0
   15.9753   33.1892   16.7318 C   0  0  0  0  0  0  0  0  0  0  0  0
   15.8568   31.8569   16.8027 F   0  0  0  0  0  0  0  0  0  0  0  0
   15.0995   33.9729   17.4793 C   0  0  0  0  0  0  0  0  0  0  0  0
   15.2249   35.3591   17.4414 C   0  0  0  0  0  0  0  0  0  0  0  0
   14.3840   36.1151   18.1586 F   0  0  0  0  0  0  0  0  0  0  0  0
   20.0087   33.1302   16.7495 C   0  0  0  0  0  0  0  0  0  0  0  0
   21.4477   33.0770   16.3229 C   0  0  0  0  0  0  0  0  0  0  0  0
   22.5613   33.1394   17.1424 C   0  0  0  0  0  0  0  0  0  0  0  0
   23.7813   33.0691   16.4123 C   0  0  0  0  0  0  0  0  0  0  0  0
   23.5649   32.9706   15.0576 C   0  0  0  0  0  0  0  0  0  0  0  0
   21.9039   33.0136   14.6715 S   0  0  0  0  0  0  0  0  0  0  0  0
   22.3970   29.4134   10.3289 H   0  0  0  0  0  0  0  0  0  0  0  0
   22.9985   27.9816    9.5220 H   0  0  0  0  0  0  0  0  0  0  0  0
   24.1074   29.2979    9.9711 H   0  0  0  0  0  0  0  0  0  0  0  0
   23.2225   27.6832   13.6448 H   0  0  0  0  0  0  0  0  0  0  0  0
   21.3878   28.0615   14.7396 H   0  0  0  0  0  0  0  0  0  0  0  0
   19.7440   30.4157   13.9607 H   0  0  0  0  0  0  0  0  0  0  0  0
   17.7141   28.9963   14.7165 H   0  0  0  0  0  0  0  0  0  0  0  0
   18.7764   27.6098   14.7774 H   0  0  0  0  0  0  0  0  0  0  0  0
   17.2972   30.1619   12.4786 H   0  0  0  0  0  0  0  0  0  0  0  0
   16.9364   29.7509   10.0822 H   0  0  0  0  0  0  0  0  0  0  0  0
   17.8098   27.6851    9.0224 H   0  0  0  0  0  0  0  0  0  0  0  0
   19.0571   26.0266   10.3817 H   0  0  0  0  0  0  0  0  0  0  0  0
   19.4293   26.4244   12.7877 H   0  0  0  0  0  0  0  0  0  0  0  0
   20.9884   30.3059   16.1918 H   0  0  0  0  0  0  0  0  0  0  0  0
   19.1389   28.2443   16.7892 H   0  0  0  0  0  0  0  0  0  0  0  0
   19.0013   30.9123   17.6724 H   0  0  0  0  0  0  0  0  0  0  0  0
   17.9398   30.4815   16.3802 H   0  0  0  0  0  0  0  0  0  0  0  0
   17.8453   35.6730   15.3142 H   0  0  0  0  0  0  0  0  0  0  0  0
   14.3231   33.5125   18.0813 H   0  0  0  0  0  0  0  0  0  0  0  0
   19.9460   32.8832   17.8161 H   0  0  0  0  0  0  0  0  0  0  0  0
   19.6572   34.1618   16.6714 H   0  0  0  0  0  0  0  0  0  0  0  0
   22.5039   33.2298   18.2205 H   0  0  0  0  0  0  0  0  0  0  0  0
   24.7684   33.0874   16.8574 H   0  0  0  0  0  0  0  0  0  0  0  0
   24.2991   32.8920   14.2681 H   0  0  0  0  0  0  0  0  0  0  0  0
  1  2  1  0  0  0  0
  2  3  1  0  0  0  0
  2  4  1  0  0  0  0
  2  5  1  0  0  0  0
  5  6  1  0  0  0  0
  5  7  2  0  0  0  0
  6 41  1  0  0  0  0
  6 42  1  0  0  0  0
  6 43  1  0  0  0  0
  7  8  1  0  0  0  0
  7 44  1  0  0  0  0
  8  9  2  0  0  0  0
  8 10  1  0  0  0  0
 10 11  1  0  0  0  0
 10 45  1  0  0  0  0
 11 12  1  0  0  0  0
 11 19  1  0  0  0  0
 11 46  1  6  0  0  0
 12 13  1  0  0  0  0
 12 47  1  0  0  0  0
 12 48  1  0  0  0  0
 13 14  2  0  0  0  0
 13 18  1  0  0  0  0
 14 15  1  0  0  0  0
 14 49  1  0  0  0  0
 15 16  2  0  0  0  0
 15 50  1  0  0  0  0
 16 17  1  0  0  0  0
 16 51  1  0  0  0  0
 17 18  2  0  0  0  0
 17 52  1  0  0  0  0
 18 53  1  0  0  0  0
 19 20  1  0  0  0  0
 19 21  1  0  0  0  0
 19 54  1  1  0  0  0
 20 55  1  0  0  0  0
 21 22  1  0  0  0  0
 21 56  1  0  0  0  0
 21 57  1  0  0  0  0
 22 23  1  0  0  0  0
 22 35  1  0  0  0  0
 23 24  2  0  0  0  0
 23 25  2  0  0  0  0
 23 26  1  0  0  0  0
 26 27  2  0  0  0  0
 26 30  1  0  0  0  0
 27 28  1  0  0  0  0
 27 58  1  0  0  0  0
 28 29  1  0  0  0  0
 28 33  2  0  0  0  0
 30 31  1  0  0  0  0
 30 32  2  0  0  0  0
 32 33  1  0  0  0  0
 32 59  1  0  0  0  0
 33 34  1  0  0  0  0
 35 36  1  0  0  0  0
 35 60  1  0  0  0  0
 35 61  1  0  0  0  0
 36 37  2  0  0  0  0
 36 40  1  0  0  0  0
 37 38  1  0  0  0  0
 37 62  1  0  0  0  0
 38 39  2  0  0  0  0
 38 63  1  0  0  0  0
 39 40  1  0  0  0  0
 39 64  1  0  0  0  0
M  END
$$$$
