MZ4
 OpenBabel04051919033D

 70 73  0  0  1  0  0  0  0  0999 V2000
   17.0476   31.5606   14.3675 O   0  0  0  0  0  0  0  0  0  0  0  0
   17.8257   32.7225   14.7338 S   0  0  0  0  0  0  0  0  0  0  0  0
   18.3000   33.6671   13.7559 O   0  0  0  0  0  0  0  0  0  0  0  0
   16.8533   33.6422   15.9113 C   0  0  0  0  0  0  0  0  0  0  0  0
   15.8202   33.0146   16.6053 C   0  0  0  0  0  0  0  0  0  0  0  0
   15.0148   33.7774   17.4467 C   0  0  0  0  0  0  0  0  0  0  0  0
   15.2478   35.1513   17.6012 C   0  0  0  0  0  0  0  0  0  0  0  0
   16.2847   35.7777   16.9099 C   0  0  0  0  0  0  0  0  0  0  0  0
   16.5960   37.1064   16.9618 O   0  0  0  0  0  0  0  0  0  0  0  0
   16.0750   37.8581   18.0535 C   0  0  0  0  0  0  0  0  0  0  0  0
   17.0736   35.0197   16.0455 C   0  0  0  0  0  0  0  0  0  0  0  0
   19.1342   32.2058   15.6701 N   0  0  0  0  0  0  0  0  0  0  0  0
   19.9786   33.2314   16.3149 C   0  0  0  0  0  0  0  0  0  0  0  0
   21.4231   33.0469   15.9722 C   0  0  0  0  0  0  0  0  0  0  0  0
   21.9502   32.9036   14.3471 S   0  0  0  0  0  0  0  0  0  0  0  0
   23.5809   32.7308   14.8269 C   0  0  0  0  0  0  0  0  0  0  0  0
   23.7346   32.8523   16.1888 C   0  0  0  0  0  0  0  0  0  0  0  0
   22.4878   33.0194   16.8523 C   0  0  0  0  0  0  0  0  0  0  0  0
   19.0393   30.9231   16.3924 C   0  0  0  0  0  0  0  0  0  0  0  0
   20.0568   29.9076   15.8419 C   0  0  1  0  0  0  0  0  0  0  0  0
   20.1071   28.7547   16.7031 O   0  0  0  0  0  0  0  0  0  0  0  0
   19.8043   29.4969   14.3705 C   0  0  2  0  0  0  0  0  0  0  0  0
   18.5829   28.5569   14.1963 C   0  0  0  0  0  0  0  0  0  0  0  0
   18.2831   28.2285   12.7504 C   0  0  0  0  0  0  0  0  0  0  0  0
   18.7962   27.0654   12.1603 C   0  0  0  0  0  0  0  0  0  0  0  0
   18.5710   26.7978   10.8091 C   0  0  0  0  0  0  0  0  0  0  0  0
   17.8273   27.6867   10.0361 C   0  0  0  0  0  0  0  0  0  0  0  0
   17.3156   28.8468   10.6119 C   0  0  0  0  0  0  0  0  0  0  0  0
   17.5441   29.1178   11.9611 C   0  0  0  0  0  0  0  0  0  0  0  0
   21.0124   28.8609   13.8458 N   0  0  0  0  0  0  0  0  0  0  0  0
   21.5005   29.1869   12.5959 C   0  0  0  0  0  0  0  0  0  0  0  0
   21.0670   30.0951   11.9040 O   0  0  0  0  0  0  0  0  0  0  0  0
   22.5976   28.3388   12.0730 C   0  0  0  0  0  0  0  0  0  0  0  0
   23.6086   27.8383   12.9047 C   0  0  0  0  0  0  0  0  0  0  0  0
   24.6460   27.0814   12.3534 C   0  0  0  0  0  0  0  0  0  0  0  0
   22.6190   28.0778   10.6942 C   0  0  0  0  0  0  0  0  0  0  0  0
   23.6461   27.3110   10.1628 C   0  0  0  0  0  0  0  0  0  0  0  0
   23.6394   27.0590    8.8215 O   0  0  0  0  0  0  0  0  0  0  0  0
   24.6554   26.8198   10.9864 C   0  0  0  0  0  0  0  0  0  0  0  0
   25.6737   26.0704   10.4729 O   0  0  0  0  0  0  0  0  0  0  0  0
   15.6153   31.9534   16.4720 H   0  0  0  0  0  0  0  0  0  0  0  0
   14.1848   33.3085   17.9689 H   0  0  0  0  0  0  0  0  0  0  0  0
   14.5818   35.7122   18.2467 H   0  0  0  0  0  0  0  0  0  0  0  0
   16.4161   38.8923   17.9386 H   0  0  0  0  0  0  0  0  0  0  0  0
   16.4650   37.4822   19.0052 H   0  0  0  0  0  0  0  0  0  0  0  0
   14.9808   37.8777   18.0567 H   0  0  0  0  0  0  0  0  0  0  0  0
   17.8568   35.5092   15.4700 H   0  0  0  0  0  0  0  0  0  0  0  0
   19.8569   33.1535   17.4044 H   0  0  0  0  0  0  0  0  0  0  0  0
   19.6863   34.2458   16.0515 H   0  0  0  0  0  0  0  0  0  0  0  0
   24.3489   32.5695   14.0837 H   0  0  0  0  0  0  0  0  0  0  0  0
   24.6954   32.8128   16.6856 H   0  0  0  0  0  0  0  0  0  0  0  0
   22.3723   33.1185   17.9242 H   0  0  0  0  0  0  0  0  0  0  0  0
   18.0322   30.5016   16.3373 H   0  0  0  0  0  0  0  0  0  0  0  0
   19.2092   31.0701   17.4658 H   0  0  0  0  0  0  0  0  0  0  0  0
   21.0592   30.3413   15.9012 H   0  0  0  0  0  0  0  0  0  0  0  0
   19.2127   28.3781   16.7558 H   0  0  0  0  0  0  0  0  0  0  0  0
   19.6234   30.4101   13.7774 H   0  0  0  0  0  0  0  0  0  0  0  0
   17.6861   28.9920   14.6492 H   0  0  0  0  0  0  0  0  0  0  0  0
   18.7581   27.6169   14.7364 H   0  0  0  0  0  0  0  0  0  0  0  0
   19.3993   26.3745   12.7428 H   0  0  0  0  0  0  0  0  0  0  0  0
   18.9859   25.9023   10.3558 H   0  0  0  0  0  0  0  0  0  0  0  0
   17.6545   27.4830    8.9833 H   0  0  0  0  0  0  0  0  0  0  0  0
   16.7506   29.5530   10.0099 H   0  0  0  0  0  0  0  0  0  0  0  0
   17.1585   30.0423   12.3831 H   0  0  0  0  0  0  0  0  0  0  0  0
   21.3480   28.0378   14.3275 H   0  0  0  0  0  0  0  0  0  0  0  0
   23.6173   28.0626   13.9683 H   0  0  0  0  0  0  0  0  0  0  0  0
   25.4415   26.6994   12.9867 H   0  0  0  0  0  0  0  0  0  0  0  0
   21.8385   28.4745   10.0522 H   0  0  0  0  0  0  0  0  0  0  0  0
   24.4899   26.6474    8.5953 H   0  0  0  0  0  0  0  0  0  0  0  0
   25.2628   25.3122   10.0232 H   0  0  0  0  0  0  0  0  0  0  0  0
  1  2  2  0  0  0  0
  2  3  2  0  0  0  0
  2  4  1  0  0  0  0
  2 12  1  0  0  0  0
  4  5  2  0  0  0  0
  4 11  1  0  0  0  0
  5  6  1  0  0  0  0
  5 41  1  0  0  0  0
  6  7  2  0  0  0  0
  6 42  1  0  0  0  0
  7  8  1  0  0  0  0
  7 43  1  0  0  0  0
  8  9  1  0  0  0  0
  8 11  2  0  0  0  0
  9 10  1  0  0  0  0
 10 44  1  0  0  0  0
 10 45  1  0  0  0  0
 10 46  1  0  0  0  0
 11 47  1  0  0  0  0
 12 13  1  0  0  0  0
 12 19  1  0  0  0  0
 13 14  1  0  0  0  0
 13 48  1  0  0  0  0
 13 49  1  0  0  0  0
 14 15  1  0  0  0  0
 14 18  2  0  0  0  0
 15 16  1  0  0  0  0
 16 17  2  0  0  0  0
 16 50  1  0  0  0  0
 17 18  1  0  0  0  0
 17 51  1  0  0  0  0
 18 52  1  0  0  0  0
 19 20  1  0  0  0  0
 19 53  1  0  0  0  0
 19 54  1  0  0  0  0
 20 21  1  0  0  0  0
 20 22  1  0  0  0  0
 20 55  1  1  0  0  0
 21 56  1  0  0  0  0
 22 23  1  0  0  0  0
 22 30  1  0  0  0  0
 22 57  1  6  0  0  0
 23 24  1  0  0  0  0
 23 58  1  0  0  0  0
 23 59  1  0  0  0  0
 24 25  2  0  0  0  0
 24 29  1  0  0  0  0
 25 26  1  0  0  0  0
 25 60  1  0  0  0  0
 26 27  2  0  0  0  0
 26 61  1  0  0  0  0
 27 28  1  0  0  0  0
 27 62  1  0  0  0  0
 28 29  2  0  0  0  0
 28 63  1  0  0  0  0
 29 64  1  0  0  0  0
 30 31  1  0  0  0  0
 30 65  1  0  0  0  0
 31 32  2  0  0  0  0
 31 33  1  0  0  0  0
 33 34  2  0  0  0  0
 33 36  1  0  0  0  0
 34 35  1  0  0  0  0
 34 66  1  0  0  0  0
 35 39  2  0  0  0  0
 35 67  1  0  0  0  0
 36 37  2  0  0  0  0
 36 68  1  0  0  0  0
 37 38  1  0  0  0  0
 37 39  1  0  0  0  0
 38 69  1  0  0  0  0
 39 40  1  0  0  0  0
 40 70  1  0  0  0  0
M  END
$$$$
