MZ5
 OpenBabel04051919033D

 74 76  0  0  1  0  0  0  0  0999 V2000
   21.4849   30.1786   12.0118 O   0  0  0  0  0  0  0  0  0  0  0  0
   21.5865   28.9754   12.2992 C   0  0  0  0  0  0  0  0  0  0  0  0
   22.5999   28.0783   11.5803 C   0  0  2  0  0  0  0  0  0  0  0  0
   22.2629   28.0668   10.0750 C   0  0  0  0  0  0  0  0  0  0  0  0
   20.8854   27.4582    9.8295 C   0  0  0  0  0  0  0  0  0  0  0  0
   23.3091   27.3047    9.2688 C   0  0  0  0  0  0  0  0  0  0  0  0
   22.6701   26.7555   12.1056 O   0  0  0  0  0  0  0  0  0  0  0  0
   20.7785   28.3514   13.2060 N   0  0  0  0  0  0  0  0  0  0  0  0
   19.6680   29.0590   13.8487 C   0  0  1  0  0  0  0  0  0  0  0  0
   18.3922   28.2074   13.7746 C   0  0  0  0  0  0  0  0  0  0  0  0
   17.9664   27.9055   12.3606 C   0  0  0  0  0  0  0  0  0  0  0  0
   17.5138   28.9288   11.5195 C   0  0  0  0  0  0  0  0  0  0  0  0
   17.1447   28.6532   10.2057 C   0  0  0  0  0  0  0  0  0  0  0  0
   17.2220   27.3502    9.7207 C   0  0  0  0  0  0  0  0  0  0  0  0
   17.6805   26.3247   10.5465 C   0  0  0  0  0  0  0  0  0  0  0  0
   18.0518   26.6002   11.8621 C   0  0  0  0  0  0  0  0  0  0  0  0
   20.0624   29.4289   15.2947 C   0  0  2  0  0  0  0  0  0  0  0  0
   20.0145   28.2860   16.1622 O   0  0  0  0  0  0  0  0  0  0  0  0
   19.1842   30.5317   15.9010 C   0  0  0  0  0  0  0  0  0  0  0  0
   19.3792   31.8080   15.1892 N   0  0  0  0  0  0  0  0  0  0  0  0
   20.1604   32.7999   15.9561 C   0  0  0  0  0  0  0  0  0  0  0  0
   21.6559   32.4783   15.9504 C   0  0  1  0  0  0  0  0  0  0  0  0
   22.2312   32.6196   14.5420 C   0  0  0  0  0  0  0  0  0  0  0  0
   22.4170   33.3460   16.9648 C   0  0  0  0  0  0  0  0  0  0  0  0
   22.0522   34.8208   16.9245 C   0  0  0  0  0  0  0  0  0  0  0  0
   18.0624   32.4045   14.3003 S   0  0  0  0  0  0  0  0  0  0  0  0
   17.2499   31.2859   13.8725 O   0  0  0  0  0  0  0  0  0  0  0  0
   18.5401   33.3991   13.3622 O   0  0  0  0  0  0  0  0  0  0  0  0
   17.1361   33.2596   15.5429 C   0  0  0  0  0  0  0  0  0  0  0  0
   17.3354   34.6331   15.7202 C   0  0  0  0  0  0  0  0  0  0  0  0
   16.5467   35.2733   16.6807 C   0  0  0  0  0  0  0  0  0  0  0  0
   16.5525   36.9331   17.1315 S   0  0  0  0  0  0  0  0  0  0  0  0
   15.3106   36.6105   18.2607 C   0  0  0  0  0  0  0  0  0  0  0  0
   14.8929   35.3674   18.3405 N   0  0  0  0  0  0  0  0  0  0  0  0
   15.5907   34.5872   17.4354 C   0  0  0  0  0  0  0  0  0  0  0  0
   15.4172   33.2010   17.2245 C   0  0  0  0  0  0  0  0  0  0  0  0
   16.1931   32.5437   16.2747 C   0  0  0  0  0  0  0  0  0  0  0  0
   23.5767   28.5489   11.7420 H   0  0  0  0  0  0  0  0  0  0  0  0
   22.2420   29.1016    9.7065 H   0  0  0  0  0  0  0  0  0  0  0  0
   20.6428   27.4372    8.7639 H   0  0  0  0  0  0  0  0  0  0  0  0
   20.1219   28.0629   10.3207 H   0  0  0  0  0  0  0  0  0  0  0  0
   20.8231   26.4380   10.2216 H   0  0  0  0  0  0  0  0  0  0  0  0
   24.3036   27.7296    9.4361 H   0  0  0  0  0  0  0  0  0  0  0  0
   23.0865   27.3620    8.1990 H   0  0  0  0  0  0  0  0  0  0  0  0
   23.3349   26.2447    9.5409 H   0  0  0  0  0  0  0  0  0  0  0  0
   23.3563   26.2891   11.5966 H   0  0  0  0  0  0  0  0  0  0  0  0
   20.9512   27.3743   13.4217 H   0  0  0  0  0  0  0  0  0  0  0  0
   19.5109   29.9873   13.2857 H   0  0  0  0  0  0  0  0  0  0  0  0
   17.5605   28.7021   14.2877 H   0  0  0  0  0  0  0  0  0  0  0  0
   18.5599   27.2602   14.2999 H   0  0  0  0  0  0  0  0  0  0  0  0
   17.4600   29.9538   11.8756 H   0  0  0  0  0  0  0  0  0  0  0  0
   16.8062   29.4617    9.5642 H   0  0  0  0  0  0  0  0  0  0  0  0
   16.9342   27.1375    8.6958 H   0  0  0  0  0  0  0  0  0  0  0  0
   17.7666   25.3131   10.1613 H   0  0  0  0  0  0  0  0  0  0  0  0
   18.4285   25.7964   12.4894 H   0  0  0  0  0  0  0  0  0  0  0  0
   21.1070   29.7557   15.2838 H   0  0  0  0  0  0  0  0  0  0  0  0
   19.0893   27.9913   16.2149 H   0  0  0  0  0  0  0  0  0  0  0  0
   19.4216   30.6440   16.9658 H   0  0  0  0  0  0  0  0  0  0  0  0
   18.1398   30.2188   15.8866 H   0  0  0  0  0  0  0  0  0  0  0  0
   19.7844   32.8187   16.9873 H   0  0  0  0  0  0  0  0  0  0  0  0
   20.0087   33.7976   15.5326 H   0  0  0  0  0  0  0  0  0  0  0  0
   21.8116   31.4434   16.2689 H   0  0  0  0  0  0  0  0  0  0  0  0
   23.3010   32.3911   14.5351 H   0  0  0  0  0  0  0  0  0  0  0  0
   22.0890   33.6301   14.1478 H   0  0  0  0  0  0  0  0  0  0  0  0
   21.7417   31.9234   13.8561 H   0  0  0  0  0  0  0  0  0  0  0  0
   23.4956   33.2366   16.8036 H   0  0  0  0  0  0  0  0  0  0  0  0
   22.2073   32.9658   17.9726 H   0  0  0  0  0  0  0  0  0  0  0  0
   22.6272   35.3706   17.6735 H   0  0  0  0  0  0  0  0  0  0  0  0
   20.9930   34.9755   17.1540 H   0  0  0  0  0  0  0  0  0  0  0  0
   22.2611   35.2478   15.9401 H   0  0  0  0  0  0  0  0  0  0  0  0
   18.0701   35.1904   15.1442 H   0  0  0  0  0  0  0  0  0  0  0  0
   14.8999   37.4000   18.8741 H   0  0  0  0  0  0  0  0  0  0  0  0
   14.6749   32.6469   17.7891 H   0  0  0  0  0  0  0  0  0  0  0  0
   16.0511   31.4809   16.1005 H   0  0  0  0  0  0  0  0  0  0  0  0
  1  2  2  0  0  0  0
  2  3  1  0  0  0  0
  2  8  1  0  0  0  0
  3  4  1  0  0  0  0
  3  7  1  0  0  0  0
  3 38  1  1  0  0  0
  4  5  1  0  0  0  0
  4  6  1  0  0  0  0
  4 39  1  0  0  0  0
  5 40  1  0  0  0  0
  5 41  1  0  0  0  0
  5 42  1  0  0  0  0
  6 43  1  0  0  0  0
  6 44  1  0  0  0  0
  6 45  1  0  0  0  0
  7 46  1  0  0  0  0
  8  9  1  0  0  0  0
  8 47  1  0  0  0  0
  9 10  1  0  0  0  0
  9 17  1  0  0  0  0
  9 48  1  6  0  0  0
 10 11  1  0  0  0  0
 10 49  1  0  0  0  0
 10 50  1  0  0  0  0
 11 12  2  0  0  0  0
 11 16  1  0  0  0  0
 12 13  1  0  0  0  0
 12 51  1  0  0  0  0
 13 14  2  0  0  0  0
 13 52  1  0  0  0  0
 14 15  1  0  0  0  0
 14 53  1  0  0  0  0
 15 16  2  0  0  0  0
 15 54  1  0  0  0  0
 16 55  1  0  0  0  0
 17 18  1  0  0  0  0
 17 19  1  0  0  0  0
 17 56  1  6  0  0  0
 18 57  1  0  0  0  0
 19 20  1  0  0  0  0
 19 58  1  0  0  0  0
 19 59  1  0  0  0  0
 20 21  1  0  0  0  0
 20 26  1  0  0  0  0
 21 22  1  0  0  0  0
 21 60  1  0  0  0  0
 21 61  1  0  0  0  0
 22 23  1  0  0  0  0
 22 24  1  0  0  0  0
 22 62  1  1  0  0  0
 23 63  1  0  0  0  0
 23 64  1  0  0  0  0
 23 65  1  0  0  0  0
 24 25  1  0  0  0  0
 24 66  1  0  0  0  0
 24 67  1  0  0  0  0
 25 68  1  0  0  0  0
 25 69  1  0  0  0  0
 25 70  1  0  0  0  0
 26 27  2  0  0  0  0
 26 28  2  0  0  0  0
 26 29  1  0  0  0  0
 29 30  2  0  0  0  0
 29 37  1  0  0  0  0
 30 31  1  0  0  0  0
 30 71  1  0  0  0  0
 31 32  1  0  0  0  0
 31 35  2  0  0  0  0
 32 33  1  0  0  0  0
 33 34  2  0  0  0  0
 33 72  1  0  0  0  0
 34 35  1  0  0  0  0
 35 36  1  0  0  0  0
 36 37  2  0  0  0  0
 36 73  1  0  0  0  0
 37 74  1  0  0  0  0
M  END
$$$$
