MZ9
 OpenBabel04051919043D

 77 78  0  0  1  0  0  0  0  0999 V2000
   21.2638   29.8563   12.1955 O   0  0  0  0  0  0  0  0  0  0  0  0
   21.3007   28.7421   12.7016 C   0  0  0  0  0  0  0  0  0  0  0  0
   22.2212   27.6603   12.1893 C   0  0  0  0  0  0  0  0  0  0  0  0
   21.7869   27.2453   10.7877 C   0  0  0  0  0  0  0  0  0  0  0  0
   21.4961   25.7603   10.6571 C   0  0  0  0  0  0  0  0  0  0  0  0
   21.7720   24.9470   11.5309 O   0  0  0  0  0  0  0  0  0  0  0  0
   20.8547   25.3466    9.3394 C   0  0  0  0  0  0  0  0  0  0  0  0
   20.6962   23.8457    9.2030 C   0  0  0  0  0  0  0  0  0  0  0  0
   20.5173   28.3315   13.7450 N   0  0  0  0  0  0  0  0  0  0  0  0
   19.4688   29.1713   14.3273 C   0  0  1  0  0  0  0  0  0  0  0  0
   18.1315   28.4032   14.2808 C   0  0  0  0  0  0  0  0  0  0  0  0
   17.7796   28.0099   12.8672 C   0  0  0  0  0  0  0  0  0  0  0  0
   17.4385   28.9919   11.9286 C   0  0  0  0  0  0  0  0  0  0  0  0
   17.1852   28.6436   10.6052 C   0  0  0  0  0  0  0  0  0  0  0  0
   17.2650   27.3107   10.2113 C   0  0  0  0  0  0  0  0  0  0  0  0
   17.6103   26.3266   11.1368 C   0  0  0  0  0  0  0  0  0  0  0  0
   17.8711   26.6735   12.4606 C   0  0  0  0  0  0  0  0  0  0  0  0
   19.9026   29.5829   15.7512 C   0  0  2  0  0  0  0  0  0  0  0  0
   19.9026   28.4567   16.6443 O   0  0  0  0  0  0  0  0  0  0  0  0
   19.0574   30.7180   16.3495 C   0  0  0  0  0  0  0  0  0  0  0  0
   19.2822   31.9769   15.6021 N   0  0  0  0  0  0  0  0  0  0  0  0
   20.0697   32.9919   16.3443 C   0  0  0  0  0  0  0  0  0  0  0  0
   21.5600   32.6545   16.4326 C   0  0  1  0  0  0  0  0  0  0  0  0
   22.2116   32.6034   15.0491 C   0  0  0  0  0  0  0  0  0  0  0  0
   22.2712   33.6600   17.3601 C   0  0  0  0  0  0  0  0  0  0  0  0
   22.1940   35.1119   16.9031 C   0  0  0  0  0  0  0  0  0  0  0  0
   17.9705   32.5851   14.7037 S   0  0  0  0  0  0  0  0  0  0  0  0
   17.1377   31.4778   14.2883 O   0  0  0  0  0  0  0  0  0  0  0  0
   18.4799   33.5420   13.7442 O   0  0  0  0  0  0  0  0  0  0  0  0
   17.0712   33.4971   15.9332 C   0  0  0  0  0  0  0  0  0  0  0  0
   17.3304   34.8610   16.0852 C   0  0  0  0  0  0  0  0  0  0  0  0
   16.6161   35.6031   17.0249 C   0  0  0  0  0  0  0  0  0  0  0  0
   16.1042   32.8602   16.7057 C   0  0  0  0  0  0  0  0  0  0  0  0
   15.3943   33.6096   17.6376 C   0  0  0  0  0  0  0  0  0  0  0  0
   15.6392   34.9807   17.7997 C   0  0  0  0  0  0  0  0  0  0  0  0
   14.8619   35.5922   18.7481 O   0  0  0  0  0  0  0  0  0  0  0  0
   14.9679   37.0058   18.8778 C   0  0  0  0  0  0  0  0  0  0  0  0
   22.2359   26.8238   12.8935 H   0  0  0  0  0  0  0  0  0  0  0  0
   23.2306   28.0765   12.1720 H   0  0  0  0  0  0  0  0  0  0  0  0
   22.5828   27.4852   10.0781 H   0  0  0  0  0  0  0  0  0  0  0  0
   20.8780   27.7824   10.4693 H   0  0  0  0  0  0  0  0  0  0  0  0
   21.4778   25.7228    8.5218 H   0  0  0  0  0  0  0  0  0  0  0  0
   19.8720   25.8249    9.2751 H   0  0  0  0  0  0  0  0  0  0  0  0
   20.2217   23.6004    8.2483 H   0  0  0  0  0  0  0  0  0  0  0  0
   20.0758   23.4405   10.0090 H   0  0  0  0  0  0  0  0  0  0  0  0
   21.6698   23.3447    9.2414 H   0  0  0  0  0  0  0  0  0  0  0  0
   20.6136   27.3915   14.1088 H   0  0  0  0  0  0  0  0  0  0  0  0
   19.3884   30.0734   13.7109 H   0  0  0  0  0  0  0  0  0  0  0  0
   17.3097   28.9889   14.7037 H   0  0  0  0  0  0  0  0  0  0  0  0
   18.1944   27.4943   14.8939 H   0  0  0  0  0  0  0  0  0  0  0  0
   17.3979   30.0401   12.2155 H   0  0  0  0  0  0  0  0  0  0  0  0
   16.9317   29.4183    9.8867 H   0  0  0  0  0  0  0  0  0  0  0  0
   17.0619   27.0406    9.1789 H   0  0  0  0  0  0  0  0  0  0  0  0
   17.6839   25.2882   10.8267 H   0  0  0  0  0  0  0  0  0  0  0  0
   18.1671   25.9000   13.1650 H   0  0  0  0  0  0  0  0  0  0  0  0
   20.9471   29.9092   15.6975 H   0  0  0  0  0  0  0  0  0  0  0  0
   18.9898   28.1384   16.7392 H   0  0  0  0  0  0  0  0  0  0  0  0
   19.3141   30.8461   17.4081 H   0  0  0  0  0  0  0  0  0  0  0  0
   18.0022   30.4334   16.3600 H   0  0  0  0  0  0  0  0  0  0  0  0
   19.6526   33.0876   17.3549 H   0  0  0  0  0  0  0  0  0  0  0  0
   19.9646   33.9629   15.8543 H   0  0  0  0  0  0  0  0  0  0  0  0
   21.6775   31.6668   16.8937 H   0  0  0  0  0  0  0  0  0  0  0  0
   23.2781   32.3729   15.1381 H   0  0  0  0  0  0  0  0  0  0  0  0
   22.1095   33.5524   14.5139 H   0  0  0  0  0  0  0  0  0  0  0  0
   21.7567   31.8276   14.4260 H   0  0  0  0  0  0  0  0  0  0  0  0
   23.3243   33.3742   17.4609 H   0  0  0  0  0  0  0  0  0  0  0  0
   21.8303   33.5881   18.3628 H   0  0  0  0  0  0  0  0  0  0  0  0
   22.7171   35.7573   17.6142 H   0  0  0  0  0  0  0  0  0  0  0  0
   21.1602   35.4653   16.8462 H   0  0  0  0  0  0  0  0  0  0  0  0
   22.6587   35.2466   15.9227 H   0  0  0  0  0  0  0  0  0  0  0  0
   18.0911   35.3498   15.4771 H   0  0  0  0  0  0  0  0  0  0  0  0
   16.8435   36.6594   17.1187 H   0  0  0  0  0  0  0  0  0  0  0  0
   15.8951   31.7992   16.5803 H   0  0  0  0  0  0  0  0  0  0  0  0
   14.6246   33.1263   18.2369 H   0  0  0  0  0  0  0  0  0  0  0  0
   14.2815   37.3097   19.6751 H   0  0  0  0  0  0  0  0  0  0  0  0
   14.6593   37.5163   17.9613 H   0  0  0  0  0  0  0  0  0  0  0  0
   15.9758   37.3097   19.1786 H   0  0  0  0  0  0  0  0  0  0  0  0
  1  2  2  0  0  0  0
  2  3  1  0  0  0  0
  2  9  1  0  0  0  0
  3  4  1  0  0  0  0
  3 38  1  0  0  0  0
  3 39  1  0  0  0  0
  4  5  1  0  0  0  0
  4 40  1  0  0  0  0
  4 41  1  0  0  0  0
  5  6  2  0  0  0  0
  5  7  1  0  0  0  0
  7  8  1  0  0  0  0
  7 42  1  0  0  0  0
  7 43  1  0  0  0  0
  8 44  1  0  0  0  0
  8 45  1  0  0  0  0
  8 46  1  0  0  0  0
  9 10  1  0  0  0  0
  9 47  1  0  0  0  0
 10 11  1  0  0  0  0
 10 18  1  0  0  0  0
 10 48  1  6  0  0  0
 11 12  1  0  0  0  0
 11 49  1  0  0  0  0
 11 50  1  0  0  0  0
 12 13  2  0  0  0  0
 12 17  1  0  0  0  0
 13 14  1  0  0  0  0
 13 51  1  0  0  0  0
 14 15  2  0  0  0  0
 14 52  1  0  0  0  0
 15 16  1  0  0  0  0
 15 53  1  0  0  0  0
 16 17  2  0  0  0  0
 16 54  1  0  0  0  0
 17 55  1  0  0  0  0
 18 19  1  0  0  0  0
 18 20  1  0  0  0  0
 18 56  1  6  0  0  0
 19 57  1  0  0  0  0
 20 21  1  0  0  0  0
 20 58  1  0  0  0  0
 20 59  1  0  0  0  0
 21 22  1  0  0  0  0
 21 27  1  0  0  0  0
 22 23  1  0  0  0  0
 22 60  1  0  0  0  0
 22 61  1  0  0  0  0
 23 24  1  0  0  0  0
 23 25  1  0  0  0  0
 23 62  1  1  0  0  0
 24 63  1  0  0  0  0
 24 64  1  0  0  0  0
 24 65  1  0  0  0  0
 25 26  1  0  0  0  0
 25 66  1  0  0  0  0
 25 67  1  0  0  0  0
 26 68  1  0  0  0  0
 26 69  1  0  0  0  0
 26 70  1  0  0  0  0
 27 28  2  0  0  0  0
 27 29  2  0  0  0  0
 27 30  1  0  0  0  0
 30 31  2  0  0  0  0
 30 33  1  0  0  0  0
 31 32  1  0  0  0  0
 31 71  1  0  0  0  0
 32 35  2  0  0  0  0
 32 72  1  0  0  0  0
 33 34  2  0  0  0  0
 33 73  1  0  0  0  0
 34 35  1  0  0  0  0
 34 74  1  0  0  0  0
 35 36  1  0  0  0  0
 36 37  1  0  0  0  0
 37 75  1  0  0  0  0
 37 76  1  0  0  0  0
 37 77  1  0  0  0  0
M  END
$$$$
