MZA
 OpenBabel04051920383D

 54 58  0  0  1  0  0  0  0  0999 V2000
    7.6463    4.8813   18.9726 F   0  0  0  0  0  0  0  0  0  0  0  0
    7.5233    3.6313   19.4445 C   0  0  0  0  0  0  0  0  0  0  0  0
    8.1825    2.5988   18.7587 C   0  0  0  0  0  0  0  0  0  0  0  0
    9.0267    2.9306   17.5479 C   0  0  0  0  0  0  0  0  0  0  0  0
    9.8663    1.7532   17.0488 C   0  0  0  0  0  0  0  0  0  0  0  0
    9.0526    0.4984   17.0761 N   0  3  0  0  0  0  0  0  0  0  0  0
    8.6753    0.1314   18.4691 C   0  0  0  0  0  0  0  0  0  0  0  0
    7.9856    1.2654   19.1687 C   0  0  0  0  0  0  0  0  0  0  0  0
    7.1631    0.9978   20.2695 C   0  0  0  0  0  0  0  0  0  0  0  0
    6.4936    2.0332   20.9228 C   0  0  0  0  0  0  0  0  0  0  0  0
    6.6672    3.3619   20.5214 C   0  0  0  0  0  0  0  0  0  0  0  0
    5.9827    4.3902   21.2033 N   0  0  0  0  0  0  0  0  0  0  0  0
    6.5953    5.5527   21.6737 C   0  0  0  0  0  0  0  0  0  0  0  0
    7.7476    5.9157   21.4858 O   0  0  0  0  0  0  0  0  0  0  0  0
    4.6260    4.2567   21.6679 C   0  0  0  0  0  0  0  0  0  0  0  0
    4.2600    5.6380   22.1787 C   0  0  0  0  0  0  0  0  0  0  0  0
    5.5949    6.2605   22.5780 C   0  0  2  0  0  0  0  0  0  0  0  0
    5.5829    7.6956   22.3429 N   0  0  0  0  0  0  0  0  0  0  0  0
    6.0122    8.7689   23.5402 S   0  0  0  0  0  0  0  0  0  0  0  0
    5.9523   10.0824   22.9324 O   0  0  0  0  0  0  0  0  0  0  0  0
    5.2233    8.4300   24.7027 O   0  0  0  0  0  0  0  0  0  0  0  0
    7.7122    8.4063   23.8966 C   0  0  0  0  0  0  0  0  0  0  0  0
    8.0578    7.8029   25.1116 C   0  0  0  0  0  0  0  0  0  0  0  0
    8.7071    8.8284   23.0124 C   0  0  0  0  0  0  0  0  0  0  0  0
   10.0514    8.6056   23.3271 C   0  0  0  0  0  0  0  0  0  0  0  0
   10.4131    7.9743   24.5321 C   0  0  0  0  0  0  0  0  0  0  0  0
   11.7622    7.7478   24.8560 C   0  0  0  0  0  0  0  0  0  0  0  0
   12.1024    7.1315   26.0612 C   0  0  0  0  0  0  0  0  0  0  0  0
   13.7562    6.8566   26.4434 Cl  0  0  0  0  0  0  0  0  0  0  0  0
    9.4023    7.5742   25.4356 C   0  0  0  0  0  0  0  0  0  0  0  0
    9.7678    6.9591   26.6470 C   0  0  0  0  0  0  0  0  0  0  0  0
   11.1111    6.7384   26.9564 C   0  0  0  0  0  0  0  0  0  0  0  0
    9.7008    3.7638   17.7787 H   0  0  0  0  0  0  0  0  0  0  0  0
    8.3582    3.2588   16.7413 H   0  0  0  0  0  0  0  0  0  0  0  0
   10.7419    1.5780   17.6835 H   0  0  0  0  0  0  0  0  0  0  0  0
   10.1987    1.9014   16.0171 H   0  0  0  0  0  0  0  0  0  0  0  0
    8.1940    0.6261   16.5236 H   0  0  0  0  0  0  0  0  0  0  0  0
    9.5951   -0.1432   18.9970 H   0  0  0  0  0  0  0  0  0  0  0  0
    8.0222   -0.7432   18.3904 H   0  0  0  0  0  0  0  0  0  0  0  0
    7.0329   -0.0200   20.6376 H   0  0  0  0  0  0  0  0  0  0  0  0
    5.8853    1.7876   21.7907 H   0  0  0  0  0  0  0  0  0  0  0  0
    4.5575    3.5054   22.4594 H   0  0  0  0  0  0  0  0  0  0  0  0
    3.9823    3.9682   20.8283 H   0  0  0  0  0  0  0  0  0  0  0  0
    3.5582    5.5822   23.0181 H   0  0  0  0  0  0  0  0  0  0  0  0
    3.7688    6.2170   21.3865 H   0  0  0  0  0  0  0  0  0  0  0  0
    5.8314    5.9996   23.6153 H   0  0  0  0  0  0  0  0  0  0  0  0
    5.5230    8.0713   21.4006 H   0  0  0  0  0  0  0  0  0  0  0  0
    7.2756    7.5232   25.8162 H   0  0  0  0  0  0  0  0  0  0  0  0
    8.4487    9.3333   22.0846 H   0  0  0  0  0  0  0  0  0  0  0  0
   10.8164    8.9351   22.6252 H   0  0  0  0  0  0  0  0  0  0  0  0
   12.5526    8.0515   24.1726 H   0  0  0  0  0  0  0  0  0  0  0  0
    9.0083    6.6549   27.3607 H   0  0  0  0  0  0  0  0  0  0  0  0
   11.3782    6.2670   27.8996 H   0  0  0  0  0  0  0  0  0  0  0  0
    9.5682   -0.2768   16.6422 H   0  0  0  0  0  0  0  0  0  0  0  0
  1  2  1  0  0  0  0
  2  3  2  0  0  0  0
  2 11  1  0  0  0  0
  3  4  1  0  0  0  0
  3  8  1  0  0  0  0
  4  5  1  0  0  0  0
  4 33  1  0  0  0  0
  4 34  1  0  0  0  0
  5  6  1  0  0  0  0
  5 35  1  0  0  0  0
  5 36  1  0  0  0  0
  6  7  1  0  0  0  0
  6 37  1  0  0  0  0
  6 54  1  0  0  0  0
  7  8  1  0  0  0  0
  7 38  1  0  0  0  0
  7 39  1  0  0  0  0
  8  9  2  0  0  0  0
  9 10  1  0  0  0  0
  9 40  1  0  0  0  0
 10 11  2  0  0  0  0
 10 41  1  0  0  0  0
 11 12  1  0  0  0  0
 12 13  1  0  0  0  0
 12 15  1  0  0  0  0
 13 14  2  0  0  0  0
 13 17  1  0  0  0  0
 15 16  1  0  0  0  0
 15 42  1  0  0  0  0
 15 43  1  0  0  0  0
 16 17  1  0  0  0  0
 16 44  1  0  0  0  0
 16 45  1  0  0  0  0
 17 18  1  0  0  0  0
 17 46  1  1  0  0  0
 18 19  1  0  0  0  0
 18 47  1  0  0  0  0
 19 20  2  0  0  0  0
 19 21  2  0  0  0  0
 19 22  1  0  0  0  0
 22 23  2  0  0  0  0
 22 24  1  0  0  0  0
 23 30  1  0  0  0  0
 23 48  1  0  0  0  0
 24 25  2  0  0  0  0
 24 49  1  0  0  0  0
 25 26  1  0  0  0  0
 25 50  1  0  0  0  0
 26 27  2  0  0  0  0
 26 30  1  0  0  0  0
 27 28  1  0  0  0  0
 27 51  1  0  0  0  0
 28 29  1  0  0  0  0
 28 32  2  0  0  0  0
 30 31  2  0  0  0  0
 31 32  1  0  0  0  0
 31 52  1  0  0  0  0
 32 53  1  0  0  0  0
M  CHG  1   6   1
M  END
$$$$
