N3P
 OpenBabel04051918403D

 36 38  0  0  0  0  0  0  0  0999 V2000
   47.6122   38.7792   58.9536 C   0  0  0  0  0  0  0  0  0  0  0  0
   47.7659   39.8016   59.8852 C   0  0  0  0  0  0  0  0  0  0  0  0
   42.2353   47.6832   55.7882 C   0  0  0  0  0  0  0  0  0  0  0  0
   42.7029   47.1657   53.4722 C   0  0  0  0  0  0  0  0  0  0  0  0
   42.9423   46.5426   56.1774 C   0  0  0  0  0  0  0  0  0  0  0  0
   43.3851   46.0118   53.8659 C   0  0  0  0  0  0  0  0  0  0  0  0
   46.9310   39.0196   57.7634 C   0  0  0  0  0  0  0  0  0  0  0  0
   47.2286   41.0683   59.6289 C   0  0  0  0  0  0  0  0  0  0  0  0
   45.7007   40.5255   56.3056 C   0  0  0  0  0  0  0  0  0  0  0  0
   45.9805   42.5739   58.1539 C   0  0  0  0  0  0  0  0  0  0  0  0
   44.7021   44.1837   56.7971 C   0  0  0  0  0  0  0  0  0  0  0  0
   42.1262   47.9905   54.4347 C   0  0  0  0  0  0  0  0  0  0  0  0
   43.5188   45.7001   55.2223 C   0  0  0  0  0  0  0  0  0  0  0  0
   45.1348   41.7705   56.0270 C   0  0  0  0  0  0  0  0  0  0  0  0
   45.2767   42.8113   56.9546 C   0  0  0  0  0  0  0  0  0  0  0  0
   46.3910   40.2829   57.4936 C   0  0  0  0  0  0  0  0  0  0  0  0
   46.5410   41.3189   58.4337 C   0  0  0  0  0  0  0  0  0  0  0  0
   44.2038   44.5203   55.5559 N   0  0  0  0  0  0  0  0  0  0  0  0
   44.7592   44.9559   57.7576 O   0  0  0  0  0  0  0  0  0  0  0  0
   42.9485   39.9778   54.9209 O   0  0  0  0  0  0  0  0  0  0  0  0
   42.9748   41.5760   52.9184 O   0  0  0  0  0  0  0  0  0  0  0  0
   44.9756   40.0497   53.3518 O   0  0  0  0  0  0  0  0  0  0  0  0
   44.4478   41.9898   54.8629 O   0  0  0  0  0  0  0  0  0  0  0  0
   41.2557   49.3981   53.9502 Cl  0  0  0  0  0  0  0  0  0  0  0  0
   43.7838   40.7939   53.9430 P   0  0  0  0  0  0  0  0  0  0  0  0
   48.0150   37.7912   59.1467 H   0  0  0  0  0  0  0  0  0  0  0  0
   48.2885   39.6163   60.8163 H   0  0  0  0  0  0  0  0  0  0  0  0
   41.7692   48.3051   56.5417 H   0  0  0  0  0  0  0  0  0  0  0  0
   42.6199   47.3975   52.4143 H   0  0  0  0  0  0  0  0  0  0  0  0
   42.9812   46.2966   57.2343 H   0  0  0  0  0  0  0  0  0  0  0  0
   43.8214   45.3574   53.1122 H   0  0  0  0  0  0  0  0  0  0  0  0
   46.7985   38.2191   57.0362 H   0  0  0  0  0  0  0  0  0  0  0  0
   47.3447   41.8563   60.3672 H   0  0  0  0  0  0  0  0  0  0  0  0
   45.5752   39.7172   55.5854 H   0  0  0  0  0  0  0  0  0  0  0  0
   46.0820   43.3764   58.8763 H   0  0  0  0  0  0  0  0  0  0  0  0
   44.3043   43.8132   54.8183 H   0  0  0  0  0  0  0  0  0  0  0  0
  1  2  2  0  0  0  0
  1  7  1  0  0  0  0
  1 26  1  0  0  0  0
  2  8  1  0  0  0  0
  2 27  1  0  0  0  0
  3  5  2  0  0  0  0
  3 12  1  0  0  0  0
  3 28  1  0  0  0  0
  4  6  1  0  0  0  0
  4 12  2  0  0  0  0
  4 29  1  0  0  0  0
  5 13  1  0  0  0  0
  5 30  1  0  0  0  0
  6 13  2  0  0  0  0
  6 31  1  0  0  0  0
  7 16  2  0  0  0  0
  7 32  1  0  0  0  0
  8 17  2  0  0  0  0
  8 33  1  0  0  0  0
  9 14  2  0  0  0  0
  9 16  1  0  0  0  0
  9 34  1  0  0  0  0
 10 15  2  0  0  0  0
 10 17  1  0  0  0  0
 10 35  1  0  0  0  0
 11 15  1  0  0  0  0
 11 18  1  0  0  0  0
 11 19  2  0  0  0  0
 12 24  1  0  0  0  0
 13 18  1  0  0  0  0
 14 15  1  0  0  0  0
 14 23  1  0  0  0  0
 16 17  1  0  0  0  0
 18 36  1  0  0  0  0
 20 25  2  0  0  0  0
 21 25  1  0  0  0  0
 22 25  1  0  0  0  0
 23 25  1  0  0  0  0
M  END
$$$$
