NA7
 OpenBabel04051920103D

 59 62  0  0  1  0  0  0  0  0999 V2000
    9.5379   44.9059   -3.1589 P   0  0  1  0  0  0  0  0  0  0  0  0
    8.9132   43.9267   -2.1916 O   0  0  0  0  0  0  0  0  0  0  0  0
   10.9238   45.4552   -2.8823 O   0  0  0  0  0  0  0  0  0  0  0  0
    9.6511   44.1546   -4.5990 O   0  0  0  0  0  0  0  0  0  0  0  0
    8.4715   43.6079   -5.1527 C   0  0  0  0  0  0  0  0  0  0  0  0
    8.8167   42.8365   -6.4272 C   0  0  1  0  0  0  0  0  0  0  0  0
    8.7390   43.7145   -7.5836 O   0  0  0  0  0  0  0  0  0  0  0  0
   10.2098   42.2088   -6.4137 C   0  0  1  0  0  0  0  0  0  0  0  0
   10.1161   40.8362   -6.8723 O   0  0  0  0  0  0  0  0  0  0  0  0
   11.0340   43.0589   -7.3857 C   0  0  1  0  0  0  0  0  0  0  0  0
   11.9642   42.1950   -8.0253 O   0  0  0  0  0  0  0  0  0  0  0  0
    9.9666   43.5780   -8.3450 C   0  0  2  0  0  0  0  0  0  0  0  0
   10.1837   44.8268   -9.0388 N   0  3  0  0  0  0  0  0  0  0  0  0
   10.6325   46.0197   -8.5217 C   0  0  0  0  0  0  0  0  0  0  0  0
   10.6177   47.0073   -9.4084 N   0  0  0  0  0  0  0  0  0  0  0  0
   10.1803   46.4050  -10.5709 C   0  0  0  0  0  0  0  0  0  0  0  0
    9.9711   46.9205  -11.8711 C   0  0  0  0  0  0  0  0  0  0  0  0
   10.1832   48.2593  -12.2102 N   0  0  0  0  0  0  0  0  0  0  0  0
    9.5084   46.0868  -12.8334 N   0  0  0  0  0  0  0  0  0  0  0  0
    9.2445   44.8096  -12.4699 C   0  0  0  0  0  0  0  0  0  0  0  0
    9.3540   44.2224  -11.2695 N   0  0  0  0  0  0  0  0  0  0  0  0
    9.8688   45.0691  -10.3702 C   0  0  0  0  0  0  0  0  0  0  0  0
    8.5481   46.0712   -3.6053 O   0  0  0  0  0  0  0  0  0  0  0  0
    7.4598   46.9179   -2.8197 P   0  0  2  0  0  0  0  0  0  0  0  0
    6.2165   46.0959   -2.5015 O   0  0  0  0  0  0  0  0  0  0  0  0
    7.2350   48.2443   -3.5353 O   0  0  0  0  0  0  0  0  0  0  0  0
    8.2175   47.2515   -1.4367 O   0  0  0  0  0  0  0  0  0  0  0  0
    9.4143   48.0087   -1.4735 C   0  0  0  0  0  0  0  0  0  0  0  0
    9.7336   48.3524   -0.0242 C   0  0  1  0  0  0  0  0  0  0  0  0
   10.7654   47.4995    0.5115 O   0  0  0  0  0  0  0  0  0  0  0  0
   10.2801   49.7602    0.1426 C   0  0  1  0  0  0  0  0  0  0  0  0
    9.2721   50.7682    0.2621 O   0  0  0  0  0  0  0  0  0  0  0  0
   11.0652   49.6685    1.4444 C   0  0  1  0  0  0  0  0  0  0  0  0
   10.3171   50.1535    2.5706 O   0  0  0  0  0  0  0  0  0  0  0  0
   11.3937   48.1913    1.5872 C   0  0  0  0  0  0  0  0  0  0  0  0
   13.4375   42.8027   -8.4082 P   0  0  0  0  0  0  0  0  0  0  0  0
   14.0264   43.1954   -7.0743 O   0  0  0  0  0  0  0  0  0  0  0  0
   14.1141   41.6213   -9.0817 O   0  0  0  0  0  0  0  0  0  0  0  0
   13.0994   43.9551   -9.3479 O   0  0  0  0  0  0  0  0  0  0  0  0
    7.7637   44.4138   -5.3701 H   0  0  0  0  0  0  0  0  0  0  0  0
    8.0108   42.9257   -4.4262 H   0  0  0  0  0  0  0  0  0  0  0  0
    8.0389   42.0791   -6.5857 H   0  0  0  0  0  0  0  0  0  0  0  0
   10.6632   42.1434   -5.4212 H   0  0  0  0  0  0  0  0  0  0  0  0
   11.0554   40.6436   -7.1031 H   0  0  0  0  0  0  0  0  0  0  0  0
   11.5221   43.8780   -6.8396 H   0  0  0  0  0  0  0  0  0  0  0  0
    9.7735   42.8184   -9.1141 H   0  0  0  0  0  0  0  0  0  0  0  0
   10.9558   46.1059   -7.4908 H   0  0  0  0  0  0  0  0  0  0  0  0
   10.3353   48.3811  -13.1987 H   0  0  0  0  0  0  0  0  0  0  0  0
   10.8275   48.6992  -11.5560 H   0  0  0  0  0  0  0  0  0  0  0  0
    8.8706   44.1666  -13.2627 H   0  0  0  0  0  0  0  0  0  0  0  0
    9.2728   48.9079   -2.0845 H   0  0  0  0  0  0  0  0  0  0  0  0
   10.2242   47.4267   -1.9214 H   0  0  0  0  0  0  0  0  0  0  0  0
    8.8395   48.2092    0.5954 H   0  0  0  0  0  0  0  0  0  0  0  0
   10.9565   49.9982   -0.6890 H   0  0  0  0  0  0  0  0  0  0  0  0
    9.5991   51.5524   -0.2068 H   0  0  0  0  0  0  0  0  0  0  0  0
   11.9675   50.2822    1.4007 H   0  0  0  0  0  0  0  0  0  0  0  0
    9.7261   50.8368    2.1944 H   0  0  0  0  0  0  0  0  0  0  0  0
   12.4706   48.0156    1.5148 H   0  0  0  0  0  0  0  0  0  0  0  0
   11.0308   47.7672    2.5287 H   0  0  0  0  0  0  0  0  0  0  0  0
  1  2  2  1  0  0  0
  1  3  1  0  0  0  0
  1  4  1  0  0  0  0
  1 23  1  0  0  0  0
  4  5  1  0  0  0  0
  5  6  1  0  0  0  0
  5 40  1  0  0  0  0
  5 41  1  0  0  0  0
  6  7  1  0  0  0  0
  6  8  1  0  0  0  0
  6 42  1  6  0  0  0
  7 12  1  0  0  0  0
  8  9  1  0  0  0  0
  8 10  1  0  0  0  0
  8 43  1  1  0  0  0
  9 44  1  0  0  0  0
 10 11  1  0  0  0  0
 10 12  1  0  0  0  0
 10 45  1  1  0  0  0
 11 36  1  0  0  0  0
 12 13  1  0  0  0  0
 12 46  1  6  0  0  0
 13 14  2  0  0  0  0
 13 22  1  0  0  0  0
 14 15  1  0  0  0  0
 14 47  1  0  0  0  0
 15 16  1  0  0  0  0
 16 17  2  0  0  0  0
 16 22  1  0  0  0  0
 17 18  1  0  0  0  0
 17 19  1  0  0  0  0
 18 48  1  0  0  0  0
 18 49  1  0  0  0  0
 19 20  2  0  0  0  0
 20 21  1  0  0  0  0
 20 50  1  0  0  0  0
 21 22  2  0  0  0  0
 24 23  1  6  0  0  0
 24 25  2  0  0  0  0
 24 26  1  0  0  0  0
 24 27  1  0  0  0  0
 27 28  1  0  0  0  0
 28 29  1  0  0  0  0
 28 51  1  0  0  0  0
 28 52  1  0  0  0  0
 29 30  1  0  0  0  0
 29 31  1  0  0  0  0
 29 53  1  1  0  0  0
 30 35  1  0  0  0  0
 31 32  1  0  0  0  0
 31 33  1  0  0  0  0
 31 54  1  6  0  0  0
 32 55  1  0  0  0  0
 33 34  1  0  0  0  0
 33 35  1  0  0  0  0
 33 56  1  6  0  0  0
 34 57  1  0  0  0  0
 35 58  1  0  0  0  0
 35 59  1  0  0  0  0
 36 37  2  0  0  0  0
 36 38  1  0  0  0  0
 36 39  1  0  0  0  0
M  CHG  1  13   1
M  END
$$$$
