NCT
 OpenBabel04051920453D

 27 28  0  0  1  0  0  0  0  0999 V2000
  -20.4416    5.2034   -0.2169 N   0  0  0  0  0  0  0  0  0  0  0  0
  -20.2783    3.8942    0.0468 C   0  0  0  0  0  0  0  0  0  0  0  0
  -21.3151    3.0234    0.3492 C   0  0  0  0  0  0  0  0  0  0  0  0
  -22.6091    3.5578    0.3819 C   0  0  0  0  0  0  0  0  0  0  0  0
  -22.8068    4.8972    0.1045 C   0  0  0  0  0  0  0  0  0  0  0  0
  -21.7060    5.6890   -0.1919 C   0  0  0  0  0  0  0  0  0  0  0  0
  -21.9227    0.8091    1.4729 N   0  3  1  0  0  0  0  0  0  0  0  0
  -20.9713    1.5918    0.6163 C   0  0  1  0  0  0  0  0  0  0  0  0
  -20.8930    0.7259   -0.6311 C   0  0  0  0  0  0  0  0  0  0  0  0
  -20.7861   -0.6780   -0.0486 C   0  0  0  0  0  0  0  0  0  0  0  0
  -21.4843   -0.6216    1.3009 C   0  0  0  0  0  0  0  0  0  0  0  0
  -21.8596    1.2091    2.9079 C   0  0  0  0  0  0  0  0  0  0  0  0
  -19.2448    3.5594    0.0128 H   0  0  0  0  0  0  0  0  0  0  0  0
  -23.4680    2.9379    0.6292 H   0  0  0  0  0  0  0  0  0  0  0  0
  -23.8042    5.3320    0.1233 H   0  0  0  0  0  0  0  0  0  0  0  0
  -21.8203    6.7332   -0.4186 H   0  0  0  0  0  0  0  0  0  0  0  0
  -20.0130    1.5570    1.1458 H   0  0  0  0  0  0  0  0  0  0  0  0
  -20.0363    0.9774   -1.2686 H   0  0  0  0  0  0  0  0  0  0  0  0
  -21.7988    0.8183   -1.2397 H   0  0  0  0  0  0  0  0  0  0  0  0
  -19.7347   -0.9580    0.0874 H   0  0  0  0  0  0  0  0  0  0  0  0
  -21.2427   -1.4307   -0.6959 H   0  0  0  0  0  0  0  0  0  0  0  0
  -22.3597   -1.2698    1.3692 H   0  0  0  0  0  0  0  0  0  0  0  0
  -20.7816   -0.8426    2.1103 H   0  0  0  0  0  0  0  0  0  0  0  0
  -22.2147    2.2328    3.0063 H   0  0  0  0  0  0  0  0  0  0  0  0
  -20.8121    1.1324    3.2155 H   0  0  0  0  0  0  0  0  0  0  0  0
  -22.4799    0.5139    3.4796 H   0  0  0  0  0  0  0  0  0  0  0  0
  -22.8825    0.9015    1.1084 H   0  0  0  0  0  0  0  0  0  0  0  0
  1  2  2  0  0  0  0
  1  6  1  0  0  0  0
  2  3  1  0  0  0  0
  2 13  1  0  0  0  0
  3  4  2  0  0  0  0
  3  8  1  0  0  0  0
  4  5  1  0  0  0  0
  4 14  1  0  0  0  0
  5  6  2  0  0  0  0
  5 15  1  0  0  0  0
  6 16  1  0  0  0  0
  7  8  1  0  0  0  0
  7 11  1  0  0  0  0
  7 12  1  0  0  0  0
  7 27  1  6  0  0  0
  8  9  1  0  0  0  0
  8 17  1  1  0  0  0
  9 10  1  0  0  0  0
  9 18  1  0  0  0  0
  9 19  1  0  0  0  0
 10 11  1  0  0  0  0
 10 20  1  0  0  0  0
 10 21  1  0  0  0  0
 11 22  1  0  0  0  0
 11 23  1  0  0  0  0
 12 24  1  0  0  0  0
 12 25  1  0  0  0  0
 12 26  1  0  0  0  0
M  CHG  1   7   1
M  END
$$$$
