NHE
 OpenBabel04051919503D

 30 30  0  0  0  0  0  0  0  0999 V2000
   -7.8237   77.2715   20.2655 C   0  0  0  0  0  0  0  0  0  0  0  0
   -6.9228   77.0042   21.4738 C   0  0  0  0  0  0  0  0  0  0  0  0
   -5.6450   76.2712   21.1298 C   0  0  0  0  0  0  0  0  0  0  0  0
   -5.8564   75.0000   20.2961 C   0  0  0  0  0  0  0  0  0  0  0  0
   -4.9018   75.8475   22.3555 N   0  3  0  0  0  0  0  0  0  0  0  0
   -4.5665   76.8103   23.4802 C   0  0  0  0  0  0  0  0  0  0  0  0
   -3.2871   76.3560   24.1377 C   0  0  0  0  0  0  0  0  0  0  0  0
   -2.7426   77.5555   25.3183 S   0  0  0  0  0  0  0  0  0  0  0  0
   -3.8796   77.6708   26.2617 O   0  0  0  0  0  0  0  0  0  0  0  0
   -2.4960   78.7514   24.5509 O   0  0  0  0  0  0  0  0  0  0  0  0
   -1.5642   76.9234   25.9059 O   0  0  0  0  0  0  0  0  0  0  0  0
   -7.0804   75.0222   19.3882 C   0  0  0  0  0  0  0  0  0  0  0  0
   -7.5202   76.4288   19.0329 C   0  0  0  0  0  0  0  0  0  0  0  0
   -7.7447   78.3302   19.9873 H   0  0  0  0  0  0  0  0  0  0  0  0
   -8.8637   77.0876   20.5660 H   0  0  0  0  0  0  0  0  0  0  0  0
   -7.4952   76.4384   22.2148 H   0  0  0  0  0  0  0  0  0  0  0  0
   -6.6589   77.9743   21.9173 H   0  0  0  0  0  0  0  0  0  0  0  0
   -4.9763   76.9403   20.5820 H   0  0  0  0  0  0  0  0  0  0  0  0
   -5.9374   74.1194   20.9506 H   0  0  0  0  0  0  0  0  0  0  0  0
   -4.9652   74.8560   19.6673 H   0  0  0  0  0  0  0  0  0  0  0  0
   -5.4236   75.0844   22.7928 H   0  0  0  0  0  0  0  0  0  0  0  0
   -5.4079   76.7619   24.1754 H   0  0  0  0  0  0  0  0  0  0  0  0
   -4.4731   77.8032   23.0377 H   0  0  0  0  0  0  0  0  0  0  0  0
   -2.4869   76.2513   23.3910 H   0  0  0  0  0  0  0  0  0  0  0  0
   -3.4323   75.3930   24.6444 H   0  0  0  0  0  0  0  0  0  0  0  0
   -7.9073   74.5061   19.8928 H   0  0  0  0  0  0  0  0  0  0  0  0
   -6.8561   74.4705   18.4663 H   0  0  0  0  0  0  0  0  0  0  0  0
   -6.7268   76.9157   18.4535 H   0  0  0  0  0  0  0  0  0  0  0  0
   -8.4171   76.3791   18.4021 H   0  0  0  0  0  0  0  0  0  0  0  0
   -4.0009   75.4811   22.0295 H   0  0  0  0  0  0  0  0  0  0  0  0
  1  2  1  0  0  0  0
  1 13  1  0  0  0  0
  1 14  1  0  0  0  0
  1 15  1  0  0  0  0
  2  3  1  0  0  0  0
  2 16  1  0  0  0  0
  2 17  1  0  0  0  0
  3  4  1  0  0  0  0
  3  5  1  0  0  0  0
  3 18  1  0  0  0  0
  4 12  1  0  0  0  0
  4 19  1  0  0  0  0
  4 20  1  0  0  0  0
  5  6  1  0  0  0  0
  5 21  1  0  0  0  0
  5 30  1  0  0  0  0
  6  7  1  0  0  0  0
  6 22  1  0  0  0  0
  6 23  1  0  0  0  0
  7  8  1  0  0  0  0
  7 24  1  0  0  0  0
  7 25  1  0  0  0  0
  8  9  2  0  0  0  0
  8 10  2  0  0  0  0
  8 11  1  0  0  0  0
 12 13  1  0  0  0  0
 12 26  1  0  0  0  0
 12 27  1  0  0  0  0
 13 28  1  0  0  0  0
 13 29  1  0  0  0  0
M  CHG  1   5   1
M  END
$$$$
