NHV
 OpenBabel04051919453D

 42 44  0  0  1  0  0  0  0  0999 V2000
   27.5184   50.1395   -3.6326 O   0  0  0  0  0  0  0  0  0  0  0  0
   26.4403   49.7269   -2.7951 C   0  0  0  0  0  0  0  0  0  0  0  0
   26.7524   48.4464   -1.9994 C   0  0  2  0  0  0  0  0  0  0  0  0
   27.7971   48.6721   -0.8697 C   0  0  1  0  0  0  0  0  0  0  0  0
   27.3893   49.7422   -0.0135 O   0  0  0  0  0  0  0  0  0  0  0  0
   28.0227   47.3845   -0.0051 C   0  0  2  0  0  0  0  0  0  0  0  0
   29.4193   47.3275    0.3374 O   0  0  0  0  0  0  0  0  0  0  0  0
   28.3034   44.9300   -0.2123 O   0  0  0  0  0  0  0  0  0  0  0  0
   27.2363   47.3081   -2.8197 N   0  3  1  0  0  0  0  0  0  0  0  0
   27.5470   47.2345   -4.1684 C   0  0  0  0  0  0  0  0  0  0  0  0
   28.2137   46.0543   -4.3771 C   0  0  2  0  0  0  0  0  0  0  0  0
   28.2629   45.4345   -3.1277 N   0  3  0  0  0  0  0  0  0  0  0  0
   27.6987   46.2218   -2.2004 C   0  0  1  0  0  0  0  0  0  0  0  0
   28.8806   45.5313   -5.5956 C   0  0  0  0  0  0  0  0  0  0  0  0
   30.3137   45.7263   -5.4603 N   0  0  0  0  0  0  0  0  0  0  0  0
   30.9781   46.8928   -5.8343 C   0  0  0  0  0  0  0  0  0  0  0  0
   30.3497   48.0476   -6.3176 C   0  0  0  0  0  0  0  0  0  0  0  0
   31.0623   49.2283   -6.5434 C   0  0  0  0  0  0  0  0  0  0  0  0
   32.4284   49.2890   -6.2779 C   0  0  0  0  0  0  0  0  0  0  0  0
   33.0772   48.1564   -5.8026 C   0  0  0  0  0  0  0  0  0  0  0  0
   32.3580   46.9762   -5.5812 C   0  0  0  0  0  0  0  0  0  0  0  0
   27.6003   46.0647   -0.7021 C   0  0  2  0  0  0  0  0  0  0  0  0
   28.2924   50.3757   -3.0843 H   0  0  0  0  0  0  0  0  0  0  0  0
   25.5813   49.5396   -3.4505 H   0  0  0  0  0  0  0  0  0  0  0  0
   26.1648   50.5559   -2.1335 H   0  0  0  0  0  0  0  0  0  0  0  0
   25.8110   48.1247   -1.5354 H   0  0  0  0  0  0  0  0  0  0  0  0
   28.7583   48.9568   -1.3172 H   0  0  0  0  0  0  0  0  0  0  0  0
   27.6421   50.5934   -0.4198 H   0  0  0  0  0  0  0  0  0  0  0  0
   27.4895   47.4709    0.9511 H   0  0  0  0  0  0  0  0  0  0  0  0
   29.5379   46.5463    0.9181 H   0  0  0  0  0  0  0  0  0  0  0  0
   27.8654   44.1275   -0.5502 H   0  0  0  0  0  0  0  0  0  0  0  0
   27.3166   48.0606   -4.8224 H   0  0  0  0  0  0  0  0  0  0  0  0
   28.4657   45.9951   -6.5004 H   0  0  0  0  0  0  0  0  0  0  0  0
   28.6654   44.4588   -5.6613 H   0  0  0  0  0  0  0  0  0  0  0  0
   30.8833   44.8912   -5.5849 H   0  0  0  0  0  0  0  0  0  0  0  0
   29.2925   48.0646   -6.5576 H   0  0  0  0  0  0  0  0  0  0  0  0
   30.5538   50.1117   -6.9312 H   0  0  0  0  0  0  0  0  0  0  0  0
   32.9838   50.2092   -6.4446 H   0  0  0  0  0  0  0  0  0  0  0  0
   34.1430   48.1895   -5.5909 H   0  0  0  0  0  0  0  0  0  0  0  0
   32.8949   46.1133   -5.1905 H   0  0  0  0  0  0  0  0  0  0  0  0
   26.5305   45.9083   -0.5385 H   0  0  0  0  0  0  0  0  0  0  0  0
   28.7986   44.5999   -2.9182 H   0  0  0  0  0  0  0  0  0  0  0  0
  1  2  1  0  0  0  0
  1 23  1  0  0  0  0
  2  3  1  0  0  0  0
  2 24  1  0  0  0  0
  2 25  1  0  0  0  0
  3  4  1  0  0  0  0
  3  9  1  0  0  0  0
  3 26  1  1  0  0  0
  4  5  1  0  0  0  0
  4  6  1  0  0  0  0
  4 27  1  6  0  0  0
  5 28  1  0  0  0  0
  6  7  1  0  0  0  0
  6 22  1  0  0  0  0
  6 29  1  1  0  0  0
  7 30  1  0  0  0  0
  8 22  1  0  0  0  0
  8 31  1  0  0  0  0
  9 10  1  6  0  0  0
  9 13  1  0  0  0  0
 10 11  1  0  0  0  0
 10 32  1  0  0  0  0
 11 12  1  0  0  0  0
 11 14  1  1  0  0  0
 12 42  1  0  0  0  0
 13 12  1  1  0  0  0
 13 22  1  0  0  0  0
 14 15  1  0  0  0  0
 14 33  1  0  0  0  0
 14 34  1  0  0  0  0
 15 16  1  0  0  0  0
 15 35  1  0  0  0  0
 16 17  1  0  0  0  0
 16 21  1  0  0  0  0
 17 18  1  0  0  0  0
 17 36  1  0  0  0  0
 18 19  1  0  0  0  0
 18 37  1  0  0  0  0
 19 20  1  0  0  0  0
 19 38  1  0  0  0  0
 20 21  1  0  0  0  0
 20 39  1  0  0  0  0
 21 40  1  0  0  0  0
 22 41  1  1  0  0  0
M  CHG  2   9   1  12   1
M  END
$$$$
