NOJ
 OpenBabel04051918203D

 25 25  0  0  1  0  0  0  0  0999 V2000
   -0.8992   11.1443   10.9740 C   0  0  0  0  0  0  0  0  0  0  0  0
    0.1033   11.6309    9.9489 C   0  0  2  0  0  0  0  0  0  0  0  0
    0.5007   12.9432   10.4008 O   0  0  0  0  0  0  0  0  0  0  0  0
   -0.4909   11.7599    8.5507 C   0  0  1  0  0  0  0  0  0  0  0  0
    0.5833   12.0254    7.6679 O   0  0  0  0  0  0  0  0  0  0  0  0
   -1.2940   10.5185    8.1362 C   0  0  2  0  0  0  0  0  0  0  0  0
   -1.7461   10.7398    6.8185 O   0  0  0  0  0  0  0  0  0  0  0  0
   -2.4701   10.3929    9.1282 C   0  0  2  0  0  0  0  0  0  0  0  0
   -1.8747   10.1751   10.4740 N   0  3  0  0  0  0  0  0  0  0  0  0
   -3.4101    9.2193    8.8561 C   0  0  0  0  0  0  0  0  0  0  0  0
   -2.7026    7.9959    9.0458 O   0  0  0  0  0  0  0  0  0  0  0  0
   -1.4857   11.9958   11.3384 H   0  0  0  0  0  0  0  0  0  0  0  0
   -0.3828   10.6802   11.8093 H   0  0  0  0  0  0  0  0  0  0  0  0
    1.0029   10.9903    9.9260 H   0  0  0  0  0  0  0  0  0  0  0  0
   -0.2868   13.5257   10.3755 H   0  0  0  0  0  0  0  0  0  0  0  0
   -1.1604   12.6288    8.5231 H   0  0  0  0  0  0  0  0  0  0  0  0
    0.1995   12.1215    6.7864 H   0  0  0  0  0  0  0  0  0  0  0  0
   -0.6704    9.6148    8.1617 H   0  0  0  0  0  0  0  0  0  0  0  0
   -2.2453    9.9594    6.4752 H   0  0  0  0  0  0  0  0  0  0  0  0
   -3.0608   11.3203    9.1489 H   0  0  0  0  0  0  0  0  0  0  0  0
   -1.4559    9.2154   10.4779 H   0  0  0  0  0  0  0  0  0  0  0  0
   -3.8402    9.2646    7.8617 H   0  0  0  0  0  0  0  0  0  0  0  0
   -4.2333    9.2156    9.5975 H   0  0  0  0  0  0  0  0  0  0  0  0
   -2.0119    7.8975    8.3404 H   0  0  0  0  0  0  0  0  0  0  0  0
   -2.6531   10.1040   11.1650 H   0  0  0  0  0  0  0  0  0  0  0  0
  1  2  1  0  0  0  0
  1  9  1  0  0  0  0
  1 12  1  0  0  0  0
  1 13  1  0  0  0  0
  2  3  1  0  0  0  0
  2  4  1  0  0  0  0
  2 14  1  6  0  0  0
  3 15  1  0  0  0  0
  4  5  1  0  0  0  0
  4  6  1  0  0  0  0
  4 16  1  6  0  0  0
  5 17  1  0  0  0  0
  6  7  1  0  0  0  0
  6  8  1  0  0  0  0
  6 18  1  1  0  0  0
  7 19  1  0  0  0  0
  8  9  1  0  0  0  0
  8 10  1  0  0  0  0
  8 20  1  1  0  0  0
  9 21  1  0  0  0  0
  9 25  1  0  0  0  0
 10 11  1  0  0  0  0
 10 22  1  0  0  0  0
 10 23  1  0  0  0  0
 11 24  1  0  0  0  0
M  CHG  1   9   1
M  END
$$$$
