NOJ
 OpenBabel04051918533D

 25 25  0  0  1  0  0  0  0  0999 V2000
    5.9013    3.4812    3.0092 C   0  0  0  0  0  0  0  0  0  0  0  0
    4.6321    4.3249    2.8870 C   0  0  2  0  0  0  0  0  0  0  0  0
    3.7195    3.6587    2.0082 O   0  0  0  0  0  0  0  0  0  0  0  0
    4.9605    5.7182    2.3512 C   0  0  1  0  0  0  0  0  0  0  0  0
    3.7366    6.4666    2.3497 O   0  0  0  0  0  0  0  0  0  0  0  0
    5.9932    6.4275    3.2348 C   0  0  2  0  0  0  0  0  0  0  0  0
    6.4154    7.6387    2.6210 O   0  0  0  0  0  0  0  0  0  0  0  0
    7.2617    5.5598    3.4434 C   0  0  2  0  0  0  0  0  0  0  0  0
    6.8591    4.1763    3.8996 N   0  3  0  0  0  0  0  0  0  0  0  0
    8.1539    6.1410    4.5471 C   0  0  0  0  0  0  0  0  0  0  0  0
    7.3959    6.0653    5.7586 O   0  0  0  0  0  0  0  0  0  0  0  0
    6.3848    3.3262    2.0398 H   0  0  0  0  0  0  0  0  0  0  0  0
    5.6918    2.5038    3.4451 H   0  0  0  0  0  0  0  0  0  0  0  0
    4.1376    4.3933    3.8637 H   0  0  0  0  0  0  0  0  0  0  0  0
    2.8505    4.0949    2.1133 H   0  0  0  0  0  0  0  0  0  0  0  0
    5.3106    5.6779    1.3126 H   0  0  0  0  0  0  0  0  0  0  0  0
    3.2947    6.3158    1.4886 H   0  0  0  0  0  0  0  0  0  0  0  0
    5.5276    6.6932    4.1880 H   0  0  0  0  0  0  0  0  0  0  0  0
    6.5126    8.3346    3.2989 H   0  0  0  0  0  0  0  0  0  0  0  0
    7.8295    5.4514    2.5099 H   0  0  0  0  0  0  0  0  0  0  0  0
    6.4747    4.2642    4.8507 H   0  0  0  0  0  0  0  0  0  0  0  0
    8.4243    7.1797    4.3490 H   0  0  0  0  0  0  0  0  0  0  0  0
    9.0740    5.5550    4.6685 H   0  0  0  0  0  0  0  0  0  0  0  0
    7.9020    5.5513    6.4216 H   0  0  0  0  0  0  0  0  0  0  0  0
    7.7152    3.5772    3.9948 H   0  0  0  0  0  0  0  0  0  0  0  0
  1  2  1  0  0  0  0
  1  9  1  0  0  0  0
  1 12  1  0  0  0  0
  1 13  1  0  0  0  0
  2  3  1  0  0  0  0
  2  4  1  0  0  0  0
  2 14  1  1  0  0  0
  3 15  1  0  0  0  0
  4  5  1  0  0  0  0
  4  6  1  0  0  0  0
  4 16  1  6  0  0  0
  5 17  1  0  0  0  0
  6  7  1  0  0  0  0
  6  8  1  0  0  0  0
  6 18  1  1  0  0  0
  7 19  1  0  0  0  0
  8  9  1  0  0  0  0
  8 10  1  0  0  0  0
  8 20  1  6  0  0  0
  9 21  1  0  0  0  0
  9 25  1  0  0  0  0
 10 11  1  0  0  0  0
 10 22  1  0  0  0  0
 10 23  1  0  0  0  0
 11 24  1  0  0  0  0
M  CHG  1   9   1
M  END
$$$$
