NOK
 OpenBabel04051919373D

 31 31  0  0  1  0  0  0  0  0999 V2000
   14.7391   -6.4959    8.8211 C   0  0  0  0  0  0  0  0  0  0  0  0
   15.9445   -5.9427    8.1069 C   0  0  0  0  0  0  0  0  0  0  0  0
   16.2163   -6.2097    6.9494 O   0  0  0  0  0  0  0  0  0  0  0  0
   16.6711   -5.0432    8.8588 N   0  0  0  0  0  0  0  0  0  0  0  0
   17.8619   -4.3925    8.3335 C   0  0  1  0  0  0  0  0  0  0  0  0
   17.6782   -2.8800    8.4330 C   0  0  0  0  0  0  0  0  0  0  0  0
   18.8423   -2.1767    7.8297 N   0  3  0  0  0  0  0  0  0  0  0  0
   20.1863   -2.5463    8.4158 C   0  0  2  0  0  0  0  0  0  0  0  0
   21.2809   -1.8960    7.5609 C   0  0  0  0  0  0  0  0  0  0  0  0
   21.3287   -2.4741    6.2626 O   0  0  0  0  0  0  0  0  0  0  0  0
   20.3748   -4.0690    8.4937 C   0  0  1  0  0  0  0  0  0  0  0  0
   21.5264   -4.3786    9.2898 O   0  0  0  0  0  0  0  0  0  0  0  0
   19.1434   -4.7912    9.0894 C   0  0  2  0  0  0  0  0  0  0  0  0
   19.3146   -6.2067    9.0208 O   0  0  0  0  0  0  0  0  0  0  0  0
   14.6383   -6.0849    9.8282 H   0  0  0  0  0  0  0  0  0  0  0  0
   14.8268   -7.5871    8.8948 H   0  0  0  0  0  0  0  0  0  0  0  0
   13.8447   -6.2287    8.2527 H   0  0  0  0  0  0  0  0  0  0  0  0
   16.4020   -4.9123    9.8325 H   0  0  0  0  0  0  0  0  0  0  0  0
   17.9793   -4.6745    7.2798 H   0  0  0  0  0  0  0  0  0  0  0  0
   17.5993   -2.5556    9.4777 H   0  0  0  0  0  0  0  0  0  0  0  0
   16.7860   -2.5446    7.8937 H   0  0  0  0  0  0  0  0  0  0  0  0
   18.8325   -2.3787    6.8246 H   0  0  0  0  0  0  0  0  0  0  0  0
   20.2068   -2.1070    9.4242 H   0  0  0  0  0  0  0  0  0  0  0  0
   22.2634   -2.0548    8.0296 H   0  0  0  0  0  0  0  0  0  0  0  0
   21.1325   -0.8141    7.4692 H   0  0  0  0  0  0  0  0  0  0  0  0
   20.5529   -2.2599    5.7250 H   0  0  0  0  0  0  0  0  0  0  0  0
   20.5723   -4.4921    7.4975 H   0  0  0  0  0  0  0  0  0  0  0  0
   21.4614   -3.9847   10.1773 H   0  0  0  0  0  0  0  0  0  0  0  0
   19.0497   -4.5418   10.1531 H   0  0  0  0  0  0  0  0  0  0  0  0
   20.1280   -6.4554    9.5038 H   0  0  0  0  0  0  0  0  0  0  0  0
   18.6958   -1.1590    7.9134 H   0  0  0  0  0  0  0  0  0  0  0  0
  1  2  1  0  0  0  0
  1 15  1  0  0  0  0
  1 16  1  0  0  0  0
  1 17  1  0  0  0  0
  2  3  2  0  0  0  0
  2  4  1  0  0  0  0
  4  5  1  0  0  0  0
  4 18  1  0  0  0  0
  5  6  1  0  0  0  0
  5 13  1  0  0  0  0
  5 19  1  6  0  0  0
  6  7  1  0  0  0  0
  6 20  1  0  0  0  0
  6 21  1  0  0  0  0
  7  8  1  0  0  0  0
  7 22  1  0  0  0  0
  7 31  1  0  0  0  0
  8  9  1  0  0  0  0
  8 11  1  0  0  0  0
  8 23  1  1  0  0  0
  9 10  1  0  0  0  0
  9 24  1  0  0  0  0
  9 25  1  0  0  0  0
 10 26  1  0  0  0  0
 11 12  1  0  0  0  0
 11 13  1  0  0  0  0
 11 27  1  6  0  0  0
 12 28  1  0  0  0  0
 13 14  1  0  0  0  0
 13 29  1  1  0  0  0
 14 30  1  0  0  0  0
M  CHG  1   7   1
M  END
$$$$
