NON
 OpenBabel04051920133D

 92 95  0  0  1  0  0  0  0  0999 V2000
  -16.9482    2.8958   28.4103 C   0  0  1  0  0  0  0  0  0  0  0  0
  -16.1022    2.9069   27.1686 C   0  0  1  0  0  0  0  0  0  0  0  0
  -16.5894    1.8650   26.1565 C   0  0  1  0  0  0  0  0  0  0  0  0
  -18.0980    1.9938   25.9216 C   0  0  2  0  0  0  0  0  0  0  0  0
  -18.8307    1.9525   27.2657 C   0  0  2  0  0  0  0  0  0  0  0  0
  -20.3203    2.1847   27.1014 C   0  0  0  0  0  0  0  0  0  0  0  0
  -16.1537    4.2123   26.5883 O   0  0  0  0  0  0  0  0  0  0  0  0
  -15.8925    1.9864   24.9010 O   0  0  0  0  0  0  0  0  0  0  0  0
  -18.5269    0.9471   25.0535 O   0  0  0  0  0  0  0  0  0  0  0  0
  -18.3774    3.0048   28.1226 O   0  0  0  0  0  0  0  0  0  0  0  0
  -14.6871   -0.0549   32.3156 C   0  0  2  0  0  0  0  0  0  0  0  0
  -13.5691    0.9922   32.3288 C   0  0  1  0  0  0  0  0  0  0  0  0
  -14.2003    2.3884   32.5046 C   0  0  2  0  0  0  0  0  0  0  0  0
  -15.2581    2.6229   31.4248 C   0  0  1  0  0  0  0  0  0  0  0  0
  -16.2815    1.4848   31.4844 C   0  0  1  0  0  0  0  0  0  0  0  0
  -17.3370    1.5624   30.3892 C   0  0  0  0  0  0  0  0  0  0  0  0
  -12.6736    0.7079   33.4049 O   0  0  0  0  0  0  0  0  0  0  0  0
  -13.1824    3.3928   32.4178 O   0  0  0  0  0  0  0  0  0  0  0  0
  -15.8950    3.8730   31.6487 O   0  0  0  0  0  0  0  0  0  0  0  0
  -15.6429    0.2119   31.3118 O   0  0  0  0  0  0  0  0  0  0  0  0
  -16.6728    1.7115   29.1268 O   0  0  0  0  0  0  0  0  0  0  0  0
  -16.3809   -1.2667   36.6873 C   0  0  1  0  0  0  0  0  0  0  0  0
  -17.2667   -0.2884   35.8995 C   0  0  1  0  0  0  0  0  0  0  0  0
  -17.4203   -0.8352   34.4794 C   0  0  2  0  0  0  0  0  0  0  0  0
  -16.0600   -1.2433   33.8605 C   0  0  2  0  0  0  0  0  0  0  0  0
  -15.3529   -2.2727   34.7741 C   0  0  1  0  0  0  0  0  0  0  0  0
  -13.9050   -2.5851   34.3895 C   0  0  0  0  0  0  0  0  0  0  0  0
  -17.1820   -2.4273   36.8942 O   0  0  0  0  0  0  0  0  0  0  0  0
  -18.5756   -0.2372   36.5620 O   0  0  0  0  0  0  0  0  0  0  0  0
  -18.0341    0.1932   33.7120 O   0  0  0  0  0  0  0  0  0  0  0  0
  -15.2524   -0.0769   33.6527 O   0  0  0  0  0  0  0  0  0  0  0  0
  -15.2030   -1.7612   36.1063 O   0  0  0  0  0  0  0  0  0  0  0  0
  -13.8665   -3.7568   33.5977 O   0  0  0  0  0  0  0  0  0  0  0  0
  -19.3961   -0.0557   33.3716 C   0  0  1  0  0  0  0  0  0  0  0  0
  -20.0089    1.3197   33.0412 C   0  0  1  0  0  0  0  0  0  0  0  0
  -21.3620    1.2199   32.3466 C   0  0  2  0  0  0  0  0  0  0  0  0
  -21.4012    0.1189   31.2898 C   0  0  1  0  0  0  0  0  0  0  0  0
  -20.7669   -1.1586   31.8358 C   0  0  1  0  0  0  0  0  0  0  0  0
  -20.7744   -2.2768   30.8171 C   0  0  0  0  0  0  0  0  0  0  0  0
  -19.4063    3.1746   34.5214 C   0  0  0  0  0  0  0  0  0  0  0  0
  -19.6876    3.8836   35.8175 C   0  0  0  0  0  0  0  0  0  0  0  0
  -20.1863    2.0885   34.2737 N   0  0  0  0  0  0  0  0  0  0  0  0
  -21.7086    2.4821   31.7631 O   0  0  0  0  0  0  0  0  0  0  0  0
  -22.7721   -0.1091   30.9827 O   0  0  0  0  0  0  0  0  0  0  0  0
  -19.4146   -0.9052   32.2379 O   0  0  0  0  0  0  0  0  0  0  0  0
  -20.0200   -1.9652   29.6588 O   0  0  0  0  0  0  0  0  0  0  0  0
  -18.5528    3.5848   33.7624 O   0  0  0  0  0  0  0  0  0  0  0  0
  -16.7277    3.8144   29.0091 H   0  0  0  0  0  0  0  0  0  0  0  0
  -15.0611    2.6695   27.4358 H   0  0  0  0  0  0  0  0  0  0  0  0
  -16.3630    0.8505   26.5267 H   0  0  0  0  0  0  0  0  0  0  0  0
  -18.3004    2.9531   25.4248 H   0  0  0  0  0  0  0  0  0  0  0  0
  -18.6857    0.9776   27.7458 H   0  0  0  0  0  0  0  0  0  0  0  0
  -20.8203    2.1659   28.0785 H   0  0  0  0  0  0  0  0  0  0  0  0
  -20.7788    1.4283   26.4616 H   0  0  0  0  0  0  0  0  0  0  0  0
  -20.5105    3.1751   26.6720 H   0  0  0  0  0  0  0  0  0  0  0  0
  -15.5242    4.2121   25.8345 H   0  0  0  0  0  0  0  0  0  0  0  0
  -16.1251    2.8634   24.5103 H   0  0  0  0  0  0  0  0  0  0  0  0
  -17.9653    1.0206   24.2327 H   0  0  0  0  0  0  0  0  0  0  0  0
  -14.2297   -1.0281   32.0743 H   0  0  0  0  0  0  0  0  0  0  0  0
  -13.0133    0.9719   31.3885 H   0  0  0  0  0  0  0  0  0  0  0  0
  -14.6542    2.4697   33.5023 H   0  0  0  0  0  0  0  0  0  0  0  0
  -14.7640    2.6474   30.4442 H   0  0  0  0  0  0  0  0  0  0  0  0
  -16.7935    1.5338   32.4495 H   0  0  0  0  0  0  0  0  0  0  0  0
  -18.0748    2.3279   30.5898 H   0  0  0  0  0  0  0  0  0  0  0  0
  -17.8434    0.5862   30.3243 H   0  0  0  0  0  0  0  0  0  0  0  0
  -13.2498    0.7258   34.2189 H   0  0  0  0  0  0  0  0  0  0  0  0
  -13.6040    4.2677   32.5915 H   0  0  0  0  0  0  0  0  0  0  0  0
  -15.2056    4.5678   31.6059 H   0  0  0  0  0  0  0  0  0  0  0  0
  -16.0751   -0.7579   37.6098 H   0  0  0  0  0  0  0  0  0  0  0  0
  -16.9197    0.7549   35.9122 H   0  0  0  0  0  0  0  0  0  0  0  0
  -18.0608   -1.7314   34.4986 H   0  0  0  0  0  0  0  0  0  0  0  0
  -16.2759   -1.7270   32.9175 H   0  0  0  0  0  0  0  0  0  0  0  0
  -15.9325   -3.2062   34.7232 H   0  0  0  0  0  0  0  0  0  0  0  0
  -13.2821   -2.7353   35.2840 H   0  0  0  0  0  0  0  0  0  0  0  0
  -13.4512   -1.7685   33.8312 H   0  0  0  0  0  0  0  0  0  0  0  0
  -17.9953   -2.1117   37.2661 H   0  0  0  0  0  0  0  0  0  0  0  0
  -19.0123   -1.1136   36.5025 H   0  0  0  0  0  0  0  0  0  0  0  0
  -12.9177   -3.9253   33.3885 H   0  0  0  0  0  0  0  0  0  0  0  0
  -19.9275   -0.5209   34.1990 H   0  0  0  0  0  0  0  0  0  0  0  0
  -19.3227    1.8445   32.3714 H   0  0  0  0  0  0  0  0  0  0  0  0
  -22.1400    1.0164   33.0944 H   0  0  0  0  0  0  0  0  0  0  0  0
  -20.8865    0.4744   30.3867 H   0  0  0  0  0  0  0  0  0  0  0  0
  -21.3311   -1.4882   32.7095 H   0  0  0  0  0  0  0  0  0  0  0  0
  -21.7973   -2.5078   30.5126 H   0  0  0  0  0  0  0  0  0  0  0  0
  -20.3426   -3.1818   31.2589 H   0  0  0  0  0  0  0  0  0  0  0  0
  -19.0345    4.7344   35.9020 H   0  0  0  0  0  0  0  0  0  0  0  0
  -19.5132    3.1869   36.6384 H   0  0  0  0  0  0  0  0  0  0  0  0
  -20.7325    4.2093   35.8242 H   0  0  0  0  0  0  0  0  0  0  0  0
  -20.8470    1.8026   34.9416 H   0  0  0  0  0  0  0  0  0  0  0  0
  -21.0414    2.6924   31.0586 H   0  0  0  0  0  0  0  0  0  0  0  0
  -22.8322   -0.7977   30.2805 H   0  0  0  0  0  0  0  0  0  0  0  0
  -20.3904   -1.1486   29.2474 H   0  0  0  0  0  0  0  0  0  0  0  0
  1  2  1  0  0  0  0
  1 10  1  0  0  0  0
  1 21  1  0  0  0  0
  1 48  1  1  0  0  0
  2  3  1  0  0  0  0
  2  7  1  0  0  0  0
  2 49  1  1  0  0  0
  3  4  1  0  0  0  0
  3  8  1  0  0  0  0
  3 50  1  1  0  0  0
  4  5  1  0  0  0  0
  4  9  1  0  0  0  0
  4 51  1  6  0  0  0
  5  6  1  0  0  0  0
  5 10  1  0  0  0  0
  5 52  1  1  0  0  0
  6 53  1  0  0  0  0
  6 54  1  0  0  0  0
  6 55  1  0  0  0  0
  7 56  1  0  0  0  0
  8 57  1  0  0  0  0
  9 58  1  0  0  0  0
 11 12  1  0  0  0  0
 11 20  1  0  0  0  0
 11 31  1  0  0  0  0
 11 59  1  6  0  0  0
 12 13  1  0  0  0  0
 12 17  1  0  0  0  0
 12 60  1  6  0  0  0
 13 14  1  0  0  0  0
 13 18  1  0  0  0  0
 13 61  1  1  0  0  0
 14 15  1  0  0  0  0
 14 19  1  0  0  0  0
 14 62  1  6  0  0  0
 15 16  1  0  0  0  0
 15 20  1  0  0  0  0
 15 63  1  1  0  0  0
 16 21  1  0  0  0  0
 16 64  1  0  0  0  0
 16 65  1  0  0  0  0
 17 66  1  0  0  0  0
 18 67  1  0  0  0  0
 19 68  1  0  0  0  0
 22 23  1  0  0  0  0
 22 28  1  0  0  0  0
 22 32  1  0  0  0  0
 22 69  1  1  0  0  0
 23 24  1  0  0  0  0
 23 29  1  0  0  0  0
 23 70  1  6  0  0  0
 24 25  1  0  0  0  0
 24 30  1  0  0  0  0
 24 71  1  1  0  0  0
 25 26  1  0  0  0  0
 25 31  1  0  0  0  0
 25 72  1  6  0  0  0
 26 27  1  0  0  0  0
 26 32  1  0  0  0  0
 26 73  1  1  0  0  0
 27 33  1  0  0  0  0
 27 74  1  0  0  0  0
 27 75  1  0  0  0  0
 28 76  1  0  0  0  0
 29 77  1  0  0  0  0
 30 34  1  0  0  0  0
 33 78  1  0  0  0  0
 34 35  1  0  0  0  0
 34 45  1  0  0  0  0
 34 79  1  1  0  0  0
 35 36  1  0  0  0  0
 35 42  1  0  0  0  0
 35 80  1  6  0  0  0
 36 37  1  0  0  0  0
 36 43  1  0  0  0  0
 36 81  1  1  0  0  0
 37 38  1  0  0  0  0
 37 44  1  0  0  0  0
 37 82  1  6  0  0  0
 38 39  1  0  0  0  0
 38 45  1  0  0  0  0
 38 83  1  1  0  0  0
 39 46  1  0  0  0  0
 39 84  1  0  0  0  0
 39 85  1  0  0  0  0
 40 41  1  0  0  0  0
 40 42  1  0  0  0  0
 40 47  2  0  0  0  0
 41 86  1  0  0  0  0
 41 87  1  0  0  0  0
 41 88  1  0  0  0  0
 42 89  1  0  0  0  0
 43 90  1  0  0  0  0
 44 91  1  0  0  0  0
 46 92  1  0  0  0  0
M  END
$$$$
