NON
 OpenBabel04051919083D

 42 43  0  0  0  0  0  0  0  0999 V2000
   26.9469  -36.4745    7.9106 N   0  0  0  0  0  0  0  0  0  0  0  0
   27.5415  -37.3252    8.7536 C   0  0  0  0  0  0  0  0  0  0  0  0
   27.5563  -38.7792    8.3803 C   0  0  0  0  0  0  0  0  0  0  0  0
   28.1765  -36.9333    9.8794 N   0  0  0  0  0  0  0  0  0  0  0  0
   28.1866  -35.6234   10.1852 C   0  0  0  0  0  0  0  0  0  0  0  0
   29.0605  -35.2703   11.2143 N   0  0  0  0  0  0  0  0  0  0  0  0
   27.5719  -34.6951    9.3766 C   0  0  0  0  0  0  0  0  0  0  0  0
   26.9637  -35.1783    8.2556 C   0  0  0  0  0  0  0  0  0  0  0  0
   27.6053  -33.2031    9.6466 C   0  0  0  0  0  0  0  0  0  0  0  0
   26.8748  -32.7506   10.8305 N   0  3  0  0  0  0  0  0  0  0  0  0
   27.5285  -32.2024   11.8452 C   0  0  0  0  0  0  0  0  0  0  0  0
   26.4700  -31.5951   13.0324 S   0  0  0  0  0  0  0  0  0  0  0  0
   25.0966  -32.1147   12.1468 C   0  0  0  0  0  0  0  0  0  0  0  0
   25.4877  -32.7005   10.9535 C   0  0  0  0  0  0  0  0  0  0  0  0
   24.6209  -33.2271    9.8757 C   0  0  0  0  0  0  0  0  0  0  0  0
   23.7203  -31.9096   12.7093 C   0  0  0  0  0  0  0  0  0  0  0  0
   23.4408  -32.8334   13.8849 C   0  0  0  0  0  0  0  0  0  0  0  0
   22.0689  -32.7358   14.1822 O   0  0  0  0  0  0  0  0  0  0  0  0
   21.5192  -33.7197   15.3661 P   0  0  1  0  0  0  0  0  0  0  0  0
   22.2789  -33.1876   16.6602 O   0  0  0  0  0  0  0  0  0  0  0  0
   20.0129  -33.5945   15.3896 O   0  0  0  0  0  0  0  0  0  0  0  0
   22.0747  -35.0936   14.9930 O   0  0  0  0  0  0  0  0  0  0  0  0
   22.3577  -31.8446   17.5549 P   0  0  0  0  0  0  0  0  0  0  0  0
   22.3816  -32.3659   18.9963 O   0  0  0  0  0  0  0  0  0  0  0  0
   23.6774  -31.1781   17.1614 O   0  0  0  0  0  0  0  0  0  0  0  0
   21.1456  -30.9874   17.2375 O   0  0  0  0  0  0  0  0  0  0  0  0
   27.0112  -38.9483    7.4412 H   0  0  0  0  0  0  0  0  0  0  0  0
   27.0804  -39.3732    9.1605 H   0  0  0  0  0  0  0  0  0  0  0  0
   28.5824  -39.1309    8.2383 H   0  0  0  0  0  0  0  0  0  0  0  0
   28.8217  -34.5132   11.8349 H   0  0  0  0  0  0  0  0  0  0  0  0
   29.2706  -36.1152   11.7539 H   0  0  0  0  0  0  0  0  0  0  0  0
   26.4742  -34.5273    7.5345 H   0  0  0  0  0  0  0  0  0  0  0  0
   27.1886  -32.6637    8.7840 H   0  0  0  0  0  0  0  0  0  0  0  0
   28.6581  -32.8745    9.6897 H   0  0  0  0  0  0  0  0  0  0  0  0
   28.6039  -32.1182   11.9374 H   0  0  0  0  0  0  0  0  0  0  0  0
   23.5550  -33.0963   10.0962 H   0  0  0  0  0  0  0  0  0  0  0  0
   24.7775  -34.2960    9.7331 H   0  0  0  0  0  0  0  0  0  0  0  0
   24.8138  -32.7025    8.9306 H   0  0  0  0  0  0  0  0  0  0  0  0
   22.9676  -32.0941   11.9272 H   0  0  0  0  0  0  0  0  0  0  0  0
   23.5665  -30.8638   12.9968 H   0  0  0  0  0  0  0  0  0  0  0  0
   24.0484  -32.5585   14.7514 H   0  0  0  0  0  0  0  0  0  0  0  0
   23.6925  -33.8645   13.6005 H   0  0  0  0  0  0  0  0  0  0  0  0
  1  2  2  0  0  0  0
  1  8  1  0  0  0  0
  2  3  1  0  0  0  0
  2  4  1  0  0  0  0
  3 27  1  0  0  0  0
  3 28  1  0  0  0  0
  3 29  1  0  0  0  0
  4  5  2  0  0  0  0
  5  6  1  0  0  0  0
  5  7  1  0  0  0  0
  6 30  1  0  0  0  0
  6 31  1  0  0  0  0
  7  8  2  0  0  0  0
  7  9  1  0  0  0  0
  8 32  1  0  0  0  0
  9 10  1  0  0  0  0
  9 33  1  0  0  0  0
  9 34  1  0  0  0  0
 10 11  2  0  0  0  0
 10 14  1  0  0  0  0
 11 12  1  0  0  0  0
 11 35  1  0  0  0  0
 12 13  1  0  0  0  0
 13 14  2  0  0  0  0
 13 16  1  0  0  0  0
 14 15  1  0  0  0  0
 15 36  1  0  0  0  0
 15 37  1  0  0  0  0
 15 38  1  0  0  0  0
 16 17  1  0  0  0  0
 16 39  1  0  0  0  0
 16 40  1  0  0  0  0
 17 18  1  0  0  0  0
 17 41  1  0  0  0  0
 17 42  1  0  0  0  0
 19 18  1  6  0  0  0
 19 20  1  0  0  0  0
 19 21  2  0  0  0  0
 19 22  1  0  0  0  0
 20 23  1  0  0  0  0
 23 24  2  0  0  0  0
 23 25  1  0  0  0  0
 23 26  1  0  0  0  0
M  CHG  1  10   1
M  END
$$$$
