NON
 OpenBabel04051919353D

 48 50  0  0  1  0  0  0  0  0999 V2000
   39.3639   13.7627   56.2016 O   0  0  0  0  0  0  0  0  0  0  0  0
   39.8430   12.7243   57.1890 P   0  0  0  0  0  0  0  0  0  0  0  0
   40.9721   13.2440   58.0768 O   0  0  0  0  0  0  0  0  0  0  0  0
   40.1996   11.3954   56.4921 O   0  0  0  0  0  0  0  0  0  0  0  0
   38.5987   12.3515   58.1654 O   0  0  0  0  0  0  0  0  0  0  0  0
   37.3631   13.3108   58.5676 P   0  0  1  0  0  0  0  0  0  0  0  0
   36.7177   12.7289   59.8203 O   0  0  0  0  0  0  0  0  0  0  0  0
   37.7238   14.7829   58.6336 O   0  0  0  0  0  0  0  0  0  0  0  0
   36.3516   13.1185   57.3230 O   0  0  0  0  0  0  0  0  0  0  0  0
   35.1933   12.0729   57.1810 P   0  0  2  0  0  0  0  0  0  0  0  0
   34.4704   12.3254   55.8580 O   0  0  0  0  0  0  0  0  0  0  0  0
   34.2530   12.0180   58.3754 O   0  0  0  0  0  0  0  0  0  0  0  0
   35.9251   10.6036   57.0338 O   0  0  0  0  0  0  0  0  0  0  0  0
   36.4166    9.8844   58.1747 C   0  0  0  0  0  0  0  0  0  0  0  0
   36.0322    8.4013   58.0742 C   0  0  1  0  0  0  0  0  0  0  0  0
   34.5863    8.2611   58.2879 O   0  0  0  0  0  0  0  0  0  0  0  0
   36.2446    7.7768   56.7064 C   0  0  1  0  0  0  0  0  0  0  0  0
   37.5582    7.3173   56.4708 O   0  0  0  0  0  0  0  0  0  0  0  0
   35.3063    6.5862   56.8029 C   0  0  1  0  0  0  0  0  0  0  0  0
   35.7913    5.6174   57.7701 O   0  0  0  0  0  0  0  0  0  0  0  0
   34.0781    7.2539   57.4016 C   0  0  2  0  0  0  0  0  0  0  0  0
   33.1375    7.7532   56.3704 N   0  3  1  0  0  0  0  0  0  0  0  0
   32.9401    9.0502   56.0200 C   0  0  0  0  0  0  0  0  0  0  0  0
   31.9756    9.0675   55.0482 N   0  3  1  0  0  0  0  0  0  0  0  0
   31.4794   10.2842   54.3962 C   0  0  0  0  0  0  0  0  0  0  0  0
   31.5936    7.7546   54.7737 C   0  0  1  0  0  0  0  0  0  0  0  0
   32.3043    6.9335   55.5869 C   0  0  1  0  0  0  0  0  0  0  0  0
   32.2050    5.5615   55.6122 N   0  0  0  0  0  0  0  0  0  0  0  0
   31.3423    5.0503   54.7609 C   0  0  1  0  0  0  0  0  0  0  0  0
   31.1656    3.6960   54.7042 N   0  0  0  0  0  0  0  0  0  0  0  0
   30.5747    5.8280   53.8972 N   0  3  0  0  0  0  0  0  0  0  0  0
   30.6880    7.1989   53.8964 C   0  0  0  0  0  0  0  0  0  0  0  0
   29.9614    7.8476   53.0659 O   0  0  0  0  0  0  0  0  0  0  0  0
   35.9700   10.2652   59.0927 H   0  0  0  0  0  0  0  0  0  0  0  0
   37.5089    9.9432   58.2277 H   0  0  0  0  0  0  0  0  0  0  0  0
   36.5997    7.8179   58.8365 H   0  0  0  0  0  0  0  0  0  0  0  0
   35.9252    8.4462   55.8967 H   0  0  0  0  0  0  0  0  0  0  0  0
   37.7941    6.7120   57.1852 H   0  0  0  0  0  0  0  0  0  0  0  0
   35.1309    6.0714   55.8510 H   0  0  0  0  0  0  0  0  0  0  0  0
   36.6845    5.3456   57.5059 H   0  0  0  0  0  0  0  0  0  0  0  0
   33.5398    6.5215   58.0222 H   0  0  0  0  0  0  0  0  0  0  0  0
   33.4301    9.9333   56.4281 H   0  0  0  0  0  0  0  0  0  0  0  0
   31.9586   11.1611   54.8093 H   0  0  0  0  0  0  0  0  0  0  0  0
   30.3878   10.3518   54.5486 H   0  0  0  0  0  0  0  0  0  0  0  0
   31.6702   10.2229   53.3149 H   0  0  0  0  0  0  0  0  0  0  0  0
   31.7220    3.1317   55.3315 H   0  0  0  0  0  0  0  0  0  0  0  0
   30.5345    3.2242   54.0722 H   0  0  0  0  0  0  0  0  0  0  0  0
   29.9074    5.4026   53.2444 H   0  0  0  0  0  0  0  0  0  0  0  0
  1  2  2  0  0  0  0
  2  3  1  0  0  0  0
  2  4  1  0  0  0  0
  2  5  1  0  0  0  0
  6  5  1  6  0  0  0
  6  7  2  0  0  0  0
  6  8  1  0  0  0  0
  6  9  1  0  0  0  0
 10  9  1  1  0  0  0
 10 11  2  0  0  0  0
 10 12  1  0  0  0  0
 10 13  1  0  0  0  0
 13 14  1  0  0  0  0
 14 15  1  0  0  0  0
 14 34  1  0  0  0  0
 14 35  1  0  0  0  0
 15 16  1  0  0  0  0
 15 17  1  0  0  0  0
 15 36  1  1  0  0  0
 16 21  1  0  0  0  0
 17 18  1  0  0  0  0
 17 19  1  0  0  0  0
 17 37  1  6  0  0  0
 18 38  1  0  0  0  0
 19 20  1  0  0  0  0
 19 21  1  0  0  0  0
 19 39  1  6  0  0  0
 20 40  1  0  0  0  0
 21 22  1  0  0  0  0
 21 41  1  1  0  0  0
 22 23  1  6  0  0  0
 22 27  1  0  0  0  0
 23 24  1  0  0  0  0
 23 42  1  0  0  0  0
 24 25  1  6  0  0  0
 24 26  1  0  0  0  0
 25 43  1  0  0  0  0
 25 44  1  0  0  0  0
 25 45  1  0  0  0  0
 26 27  1  0  0  0  0
 26 32  1  1  0  0  0
 27 28  1  6  0  0  0
 28 29  1  0  0  0  0
 29 30  1  1  0  0  0
 29 31  1  0  0  0  0
 30 46  1  0  0  0  0
 30 47  1  0  0  0  0
 31 32  1  0  0  0  0
 31 48  1  0  0  0  0
 32 33  2  0  0  0  0
M  CHG  3  22   1  24   1  31   1
M  END
$$$$
