NON
 OpenBabel04051918153D

 31 31  0  0  0  0  0  0  0  0999 V2000
   35.2983   -0.6708   26.0569 F   0  0  0  0  0  0  0  0  0  0  0  0
   34.8979    0.0491   24.9580 C   0  0  0  0  0  0  0  0  0  0  0  0
   35.8778   -0.1151   24.0253 F   0  0  0  0  0  0  0  0  0  0  0  0
   33.7871   -0.5785   24.4730 F   0  0  0  0  0  0  0  0  0  0  0  0
   34.7152    1.4790   25.2698 C   0  0  0  0  0  0  0  0  0  0  0  0
   34.8806    2.3955   24.2443 C   0  0  0  0  0  0  0  0  0  0  0  0
   34.8432    3.7387   24.5404 C   0  0  0  0  0  0  0  0  0  0  0  0
   34.4992    1.9202   26.5804 C   0  0  0  0  0  0  0  0  0  0  0  0
   34.4480    3.2705   26.8547 C   0  0  0  0  0  0  0  0  0  0  0  0
   34.6119    4.1659   25.8332 C   0  0  0  0  0  0  0  0  0  0  0  0
   34.5387    5.5272   26.2025 N   0  0  0  0  0  0  0  0  0  0  0  0
   34.7984    6.5096   25.3542 C   0  0  0  0  0  0  0  0  0  0  0  0
   35.1537    6.2569   24.1571 O   0  0  0  0  0  0  0  0  0  0  0  0
   34.6804    7.9598   25.6894 C   0  0  0  0  0  0  0  0  0  0  0  0
   34.3927    8.3686   27.1376 C   0  0  0  0  0  0  0  0  0  0  0  0
   35.9977    8.5797   25.1940 C   0  0  0  0  0  0  0  0  0  0  0  0
   33.4657    8.4385   24.8647 C   0  0  0  0  0  0  0  0  0  0  0  0
   33.1956    7.7002   23.2535 Cl  0  0  0  0  0  0  0  0  0  0  0  0
   35.0811    2.0635   23.2358 H   0  0  0  0  0  0  0  0  0  0  0  0
   35.0047    4.3963   23.6978 H   0  0  0  0  0  0  0  0  0  0  0  0
   34.4171    1.1980   27.3759 H   0  0  0  0  0  0  0  0  0  0  0  0
   34.2917    3.5970   27.8704 H   0  0  0  0  0  0  0  0  0  0  0  0
   34.3308    5.7392   27.1505 H   0  0  0  0  0  0  0  0  0  0  0  0
   34.3495    9.4674   27.2282 H   0  0  0  0  0  0  0  0  0  0  0  0
   35.1527    7.9966   27.8242 H   0  0  0  0  0  0  0  0  0  0  0  0
   33.4162    7.9848   27.4660 H   0  0  0  0  0  0  0  0  0  0  0  0
   36.2077    8.2772   24.1574 H   0  0  0  0  0  0  0  0  0  0  0  0
   36.8425    8.2359   25.8058 H   0  0  0  0  0  0  0  0  0  0  0  0
   35.9697    9.6711   25.2166 H   0  0  0  0  0  0  0  0  0  0  0  0
   33.5739    9.5021   24.6861 H   0  0  0  0  0  0  0  0  0  0  0  0
   32.5677    8.2332   25.4469 H   0  0  0  0  0  0  0  0  0  0  0  0
  1  2  1  0  0  0  0
  2  3  1  0  0  0  0
  2  4  1  0  0  0  0
  2  5  1  0  0  0  0
  5  6  2  0  0  0  0
  5  8  1  0  0  0  0
  6  7  1  0  0  0  0
  6 19  1  0  0  0  0
  7 10  2  0  0  0  0
  7 20  1  0  0  0  0
  8  9  2  0  0  0  0
  8 21  1  0  0  0  0
  9 10  1  0  0  0  0
  9 22  1  0  0  0  0
 10 11  1  0  0  0  0
 11 12  1  0  0  0  0
 11 23  1  0  0  0  0
 12 13  2  0  0  0  0
 12 14  1  0  0  0  0
 14 15  1  0  0  0  0
 14 16  1  0  0  0  0
 14 17  1  0  0  0  0
 15 24  1  0  0  0  0
 15 25  1  0  0  0  0
 15 26  1  0  0  0  0
 16 27  1  0  0  0  0
 16 28  1  0  0  0  0
 16 29  1  0  0  0  0
 17 18  1  0  0  0  0
 17 30  1  0  0  0  0
 17 31  1  0  0  0  0
M  END
$$$$
