NVG
 OpenBabel04051919323D

 52 55  0  0  1  0  0  0  0  0999 V2000
   13.0098  -10.0137   14.9944 O   0  0  0  0  0  0  0  0  0  0  0  0
   13.0905   -9.0833   15.7865 C   0  0  0  0  0  0  0  0  0  0  0  0
   12.3650   -7.9231   15.5904 N   0  3  0  0  0  0  0  0  0  0  0  0
   12.3661   -6.8263   16.3920 C   0  0  0  0  0  0  0  0  0  0  0  0
   11.6282   -5.8310   16.0668 N   0  0  0  0  0  0  0  0  0  0  0  0
   13.2242   -6.8928   17.5760 C   0  0  0  0  0  0  0  0  0  0  0  0
   13.9206   -8.0101   17.7895 C   0  0  0  0  0  0  0  0  0  0  0  0
   13.9024   -9.0928   16.9333 N   0  3  0  0  0  0  0  0  0  0  0  0
   14.7060  -10.3108   17.1820 C   0  0  2  0  0  0  0  0  0  0  0  0
   15.2201  -10.3310   18.5331 O   0  0  0  0  0  0  0  0  0  0  0  0
   15.9353  -10.4622   16.2552 C   0  0  2  0  0  0  0  0  0  0  0  0
   15.9894  -11.7595   15.6273 O   0  0  0  0  0  0  0  0  0  0  0  0
   17.1562  -10.3109   17.1718 C   0  0  2  0  0  0  0  0  0  0  0  0
   17.8076  -11.5887   17.2684 O   0  0  0  0  0  0  0  0  0  0  0  0
   16.5716   -9.8082   18.4928 C   0  0  2  0  0  0  0  0  0  0  0  0
   17.3046  -10.0734   19.8214 C   0  0  0  0  0  0  0  0  0  0  0  0
   18.2010  -11.1955   19.7789 N   0  0  0  0  0  0  0  0  0  0  0  0
   19.5469  -11.1410   20.0250 C   0  0  0  0  0  0  0  0  0  0  0  0
   20.1393  -10.0974   20.2952 O   0  0  0  0  0  0  0  0  0  0  0  0
   20.3094  -12.4436   19.8129 C   0  0  0  0  0  0  0  0  0  0  0  0
   19.5184  -13.7238   20.0751 C   0  0  0  0  0  0  0  0  0  0  0  0
   19.1027  -13.8297   21.5039 C   0  0  0  0  0  0  0  0  0  0  0  0
   18.2530  -13.0402   22.1310 N   0  0  0  0  0  0  0  0  0  0  0  0
   18.2106  -13.4934   23.4243 C   0  0  0  0  0  0  0  0  0  0  0  0
   17.4877  -13.0075   24.5272 C   0  0  0  0  0  0  0  0  0  0  0  0
   17.6091  -13.6812   25.7507 C   0  0  0  0  0  0  0  0  0  0  0  0
   18.4316  -14.8031   25.8729 C   0  0  0  0  0  0  0  0  0  0  0  0
   19.1675  -15.2913   24.7883 C   0  0  0  0  0  0  0  0  0  0  0  0
   19.0279  -14.6042   23.5813 C   0  0  0  0  0  0  0  0  0  0  0  0
   19.5854  -14.7901   22.3461 N   0  3  0  0  0  0  0  0  0  0  0  0
   11.7654   -7.8882   14.7803 H   0  0  0  0  0  0  0  0  0  0  0  0
   11.7126   -5.0733   16.7561 H   0  0  0  0  0  0  0  0  0  0  0  0
   13.2577   -6.0513   18.2528 H   0  0  0  0  0  0  0  0  0  0  0  0
   14.5222   -8.0776   18.6856 H   0  0  0  0  0  0  0  0  0  0  0  0
   14.0368  -11.1745   17.0712 H   0  0  0  0  0  0  0  0  0  0  0  0
   15.9332   -9.7181   15.4539 H   0  0  0  0  0  0  0  0  0  0  0  0
   16.0361  -12.4104   16.3570 H   0  0  0  0  0  0  0  0  0  0  0  0
   17.8820   -9.5906   16.7796 H   0  0  0  0  0  0  0  0  0  0  0  0
   18.0800  -11.8119   16.3567 H   0  0  0  0  0  0  0  0  0  0  0  0
   16.4702   -8.7204   18.4246 H   0  0  0  0  0  0  0  0  0  0  0  0
   16.5807  -10.2969   20.6142 H   0  0  0  0  0  0  0  0  0  0  0  0
   17.8645   -9.1834   20.1233 H   0  0  0  0  0  0  0  0  0  0  0  0
   17.7877  -12.0525   19.4448 H   0  0  0  0  0  0  0  0  0  0  0  0
   21.1882  -12.4216   20.4709 H   0  0  0  0  0  0  0  0  0  0  0  0
   20.6760  -12.4442   18.7789 H   0  0  0  0  0  0  0  0  0  0  0  0
   20.1264  -14.5891   19.7892 H   0  0  0  0  0  0  0  0  0  0  0  0
   18.6271  -13.7788   19.4399 H   0  0  0  0  0  0  0  0  0  0  0  0
   16.8544  -12.1387   24.4216 H   0  0  0  0  0  0  0  0  0  0  0  0
   17.0526  -13.3230   26.6122 H   0  0  0  0  0  0  0  0  0  0  0  0
   18.5064  -15.3086   26.8343 H   0  0  0  0  0  0  0  0  0  0  0  0
   19.8073  -16.1585   24.8817 H   0  0  0  0  0  0  0  0  0  0  0  0
   20.2467  -15.5190   22.0988 H   0  0  0  0  0  0  0  0  0  0  0  0
  1  2  2  0  0  0  0
  2  3  1  0  0  0  0
  2  8  1  0  0  0  0
  3  4  1  0  0  0  0
  3 31  1  0  0  0  0
  4  5  2  0  0  0  0
  4  6  1  0  0  0  0
  5 32  1  0  0  0  0
  6  7  2  0  0  0  0
  6 33  1  0  0  0  0
  7  8  1  0  0  0  0
  7 34  1  0  0  0  0
  8  9  1  0  0  0  0
  9 10  1  0  0  0  0
  9 11  1  0  0  0  0
  9 35  1  6  0  0  0
 10 15  1  0  0  0  0
 11 12  1  0  0  0  0
 11 13  1  0  0  0  0
 11 36  1  6  0  0  0
 12 37  1  0  0  0  0
 13 14  1  0  0  0  0
 13 15  1  0  0  0  0
 13 38  1  6  0  0  0
 14 39  1  0  0  0  0
 15 16  1  0  0  0  0
 15 40  1  6  0  0  0
 16 17  1  0  0  0  0
 16 41  1  0  0  0  0
 16 42  1  0  0  0  0
 17 18  1  0  0  0  0
 17 43  1  0  0  0  0
 18 19  2  0  0  0  0
 18 20  1  0  0  0  0
 20 21  1  0  0  0  0
 20 44  1  0  0  0  0
 20 45  1  0  0  0  0
 21 22  1  0  0  0  0
 21 46  1  0  0  0  0
 21 47  1  0  0  0  0
 22 23  1  0  0  0  0
 22 30  2  0  0  0  0
 23 24  1  0  0  0  0
 24 25  2  0  0  0  0
 24 29  1  0  0  0  0
 25 26  1  0  0  0  0
 25 48  1  0  0  0  0
 26 27  2  0  0  0  0
 26 49  1  0  0  0  0
 27 28  1  0  0  0  0
 27 50  1  0  0  0  0
 28 29  2  0  0  0  0
 28 51  1  0  0  0  0
 29 30  1  0  0  0  0
 30 52  1  0  0  0  0
M  CHG  3   3   1   8   1  30   1
M  END
$$$$
