OSP
 OpenBabel04051918553D

 32 33  0  0  0  0  0  0  0  0999 V2000
   -5.3487    4.5558   11.1549 O   0  0  0  0  0  0  0  0  0  0  0  0
   -4.0168    4.9868   11.5115 S   0  0  0  0  0  0  0  0  0  0  0  0
   -2.8570    4.1809   11.1592 O   0  0  0  0  0  0  0  0  0  0  0  0
   -3.7661    6.6344   10.8924 C   0  0  0  0  0  0  0  0  0  0  0  0
   -2.5150    7.3046   11.4583 C   0  0  0  0  0  0  0  0  0  0  0  0
   -1.9644    6.6814   12.7425 C   0  0  0  0  0  0  0  0  0  0  0  0
   -3.0674    6.3217   13.7237 C   0  0  0  0  0  0  0  0  0  0  0  0
   -3.9743    5.3045   13.1654 N   0  0  0  0  0  0  0  0  0  0  0  0
   -4.3986    4.2525   14.0154 C   0  0  0  0  0  0  0  0  0  0  0  0
   -3.5723    3.1602   14.2997 C   0  0  0  0  0  0  0  0  0  0  0  0
   -4.0298    2.1692   15.1686 C   0  0  0  0  0  0  0  0  0  0  0  0
   -5.6686    4.3630   14.5750 C   0  0  0  0  0  0  0  0  0  0  0  0
   -6.1351    3.3705   15.4350 C   0  0  0  0  0  0  0  0  0  0  0  0
   -5.3098    2.2829   15.7239 C   0  0  0  0  0  0  0  0  0  0  0  0
   -5.9085    1.0314   16.8227 S   0  0  0  0  0  0  0  0  0  0  0  0
   -7.3462    0.9747   16.7083 O   0  0  0  0  0  0  0  0  0  0  0  0
   -5.2379    1.2010   18.0860 O   0  0  0  0  0  0  0  0  0  0  0  0
   -5.3223   -0.3781   16.1573 N   0  0  0  0  0  0  0  0  0  0  0  0
   -4.6640    7.2117   11.1424 H   0  0  0  0  0  0  0  0  0  0  0  0
   -3.7074    6.5638    9.8016 H   0  0  0  0  0  0  0  0  0  0  0  0
   -2.7409    8.3630   11.6389 H   0  0  0  0  0  0  0  0  0  0  0  0
   -1.7255    7.2912   10.7000 H   0  0  0  0  0  0  0  0  0  0  0  0
   -1.2572    7.3764   13.2112 H   0  0  0  0  0  0  0  0  0  0  0  0
   -1.3857    5.7822   12.4973 H   0  0  0  0  0  0  0  0  0  0  0  0
   -3.6734    7.2095   13.9471 H   0  0  0  0  0  0  0  0  0  0  0  0
   -2.6215    5.9902   14.6677 H   0  0  0  0  0  0  0  0  0  0  0  0
   -2.5875    3.0714   13.8498 H   0  0  0  0  0  0  0  0  0  0  0  0
   -3.3847    1.3308   15.4094 H   0  0  0  0  0  0  0  0  0  0  0  0
   -6.2952    5.2164   14.3325 H   0  0  0  0  0  0  0  0  0  0  0  0
   -7.1316    3.4557   15.8578 H   0  0  0  0  0  0  0  0  0  0  0  0
   -5.6328   -1.2379   16.5967 H   0  0  0  0  0  0  0  0  0  0  0  0
   -4.8891   -0.3841   15.2402 H   0  0  0  0  0  0  0  0  0  0  0  0
  1  2  2  0  0  0  0
  2  3  2  0  0  0  0
  2  4  1  0  0  0  0
  2  8  1  0  0  0  0
  4  5  1  0  0  0  0
  4 19  1  0  0  0  0
  4 20  1  0  0  0  0
  5  6  1  0  0  0  0
  5 21  1  0  0  0  0
  5 22  1  0  0  0  0
  6  7  1  0  0  0  0
  6 23  1  0  0  0  0
  6 24  1  0  0  0  0
  7  8  1  0  0  0  0
  7 25  1  0  0  0  0
  7 26  1  0  0  0  0
  8  9  1  0  0  0  0
  9 10  2  0  0  0  0
  9 12  1  0  0  0  0
 10 11  1  0  0  0  0
 10 27  1  0  0  0  0
 11 14  2  0  0  0  0
 11 28  1  0  0  0  0
 12 13  2  0  0  0  0
 12 29  1  0  0  0  0
 13 14  1  0  0  0  0
 13 30  1  0  0  0  0
 14 15  1  0  0  0  0
 15 16  2  0  0  0  0
 15 17  2  0  0  0  0
 15 18  1  0  0  0  0
 18 31  1  0  0  0  0
 18 32  1  0  0  0  0
M  END
$$$$
