P19
 OpenBabel04051918513D

 37 40  0  0  0  0  0  0  0  0999 V2000
   19.5937   10.4146   19.2106 N   0  0  0  0  0  0  0  0  0  0  0  0
   19.7816   10.7298   17.9149 C   0  0  0  0  0  0  0  0  0  0  0  0
   20.8044    9.9666   17.3120 C   0  0  0  0  0  0  0  0  0  0  0  0
   21.2718    9.1411   18.3076 C   0  0  0  0  0  0  0  0  0  0  0  0
   20.4996    9.4271   19.3997 N   0  3  0  0  0  0  0  0  0  0  0  0
   22.2437    8.1965   18.3827 N   0  0  0  0  0  0  0  0  0  0  0  0
   22.3669    7.5445   19.5193 C   0  0  0  0  0  0  0  0  0  0  0  0
   21.5836    7.8037   20.6199 N   0  0  0  0  0  0  0  0  0  0  0  0
   20.6669    8.7278   20.6010 C   0  0  0  0  0  0  0  0  0  0  0  0
   19.8737    9.0855   21.6769 N   0  0  0  0  0  0  0  0  0  0  0  0
   19.9070    8.4853   22.9488 C   0  0  0  0  0  0  0  0  0  0  0  0
   20.0555    7.1019   23.1066 C   0  0  0  0  0  0  0  0  0  0  0  0
   20.2137    6.5171   24.3662 C   0  0  0  0  0  0  0  0  0  0  0  0
   20.1984    7.3137   25.5033 C   0  0  0  0  0  0  0  0  0  0  0  0
   20.0384    8.6911   25.3732 C   0  0  0  0  0  0  0  0  0  0  0  0
   19.9041    9.2738   24.1048 C   0  0  0  0  0  0  0  0  0  0  0  0
   23.3464    6.5766   19.5785 N   0  0  0  0  0  0  0  0  0  0  0  0
   23.3056    5.3767   20.3168 C   0  0  0  0  0  0  0  0  0  0  0  0
   22.6690    5.2451   21.5538 C   0  0  0  0  0  0  0  0  0  0  0  0
   22.5615    4.0164   22.2100 C   0  0  0  0  0  0  0  0  0  0  0  0
   23.1506    2.8878   21.6607 C   0  0  0  0  0  0  0  0  0  0  0  0
   23.8393    2.9956   20.4571 C   0  0  0  0  0  0  0  0  0  0  0  0
   23.9195    4.2277   19.7920 C   0  0  0  0  0  0  0  0  0  0  0  0
   19.1693   11.5019   17.4692 H   0  0  0  0  0  0  0  0  0  0  0  0
   21.1578   10.0133   16.2908 H   0  0  0  0  0  0  0  0  0  0  0  0
   19.3565    9.9545   21.5881 H   0  0  0  0  0  0  0  0  0  0  0  0
   20.0506    6.4558   22.2316 H   0  0  0  0  0  0  0  0  0  0  0  0
   20.3558    5.4430   24.4502 H   0  0  0  0  0  0  0  0  0  0  0  0
   20.3150    6.8619   26.4849 H   0  0  0  0  0  0  0  0  0  0  0  0
   20.0334    9.3172   26.2622 H   0  0  0  0  0  0  0  0  0  0  0  0
   19.8292   10.3553   24.0323 H   0  0  0  0  0  0  0  0  0  0  0  0
   23.8726    6.5229   18.7169 H   0  0  0  0  0  0  0  0  0  0  0  0
   22.2555    6.1145   22.0459 H   0  0  0  0  0  0  0  0  0  0  0  0
   22.0255    3.9516   23.1515 H   0  0  0  0  0  0  0  0  0  0  0  0
   23.0817    1.9321   22.1738 H   0  0  0  0  0  0  0  0  0  0  0  0
   24.3139    2.1182   20.0251 H   0  0  0  0  0  0  0  0  0  0  0  0
   24.4398    4.2733   18.8421 H   0  0  0  0  0  0  0  0  0  0  0  0
  1  2  1  0  0  0  0
  1  5  1  0  0  0  0
  2  3  2  0  0  0  0
  2 24  1  0  0  0  0
  3  4  1  0  0  0  0
  3 25  1  0  0  0  0
  4  5  2  0  0  0  0
  4  6  1  0  0  0  0
  5  9  1  0  0  0  0
  6  7  2  0  0  0  0
  7  8  1  0  0  0  0
  7 17  1  0  0  0  0
  8  9  2  0  0  0  0
  9 10  1  0  0  0  0
 10 11  1  0  0  0  0
 10 26  1  0  0  0  0
 11 12  2  0  0  0  0
 11 16  1  0  0  0  0
 12 13  1  0  0  0  0
 12 27  1  0  0  0  0
 13 14  2  0  0  0  0
 13 28  1  0  0  0  0
 14 15  1  0  0  0  0
 14 29  1  0  0  0  0
 15 16  2  0  0  0  0
 15 30  1  0  0  0  0
 16 31  1  0  0  0  0
 17 18  1  0  0  0  0
 17 32  1  0  0  0  0
 18 19  2  0  0  0  0
 18 23  1  0  0  0  0
 19 20  1  0  0  0  0
 19 33  1  0  0  0  0
 20 21  2  0  0  0  0
 20 34  1  0  0  0  0
 21 22  1  0  0  0  0
 21 35  1  0  0  0  0
 22 23  2  0  0  0  0
 22 36  1  0  0  0  0
 23 37  1  0  0  0  0
M  CHG  1   5   1
M  END
$$$$
