P29
 OpenBabel04051918523D

 41 44  0  0  0  0  0  0  0  0999 V2000
   20.1028    9.9522   19.7106 N   0  0  0  0  0  0  0  0  0  0  0  0
   20.4556   10.0070   18.4161 C   0  0  0  0  0  0  0  0  0  0  0  0
   21.4458    9.0592   18.0863 C   0  0  0  0  0  0  0  0  0  0  0  0
   21.6843    8.3643   19.2476 C   0  0  0  0  0  0  0  0  0  0  0  0
   20.8767    8.9470   20.1806 N   0  3  0  0  0  0  0  0  0  0  0  0
   22.4941    7.3462   19.6164 N   0  0  0  0  0  0  0  0  0  0  0  0
   22.4760    6.9456   20.8603 C   0  0  0  0  0  0  0  0  0  0  0  0
   21.6965    7.5279   21.8282 N   0  0  0  0  0  0  0  0  0  0  0  0
   20.9092    8.5102   21.5069 C   0  0  0  0  0  0  0  0  0  0  0  0
   20.1226    9.1219   22.4476 N   0  0  0  0  0  0  0  0  0  0  0  0
   20.1123    8.6885   23.8185 C   0  0  0  0  0  0  0  0  0  0  0  0
   21.2987    9.2533   24.6039 C   0  0  0  0  0  0  0  0  0  0  0  0
   21.2780    8.7470   25.9970 C   0  0  0  0  0  0  0  0  0  0  0  0
   21.3214    7.4141   26.3229 N   0  3  0  0  0  0  0  0  0  0  0  0
   21.2282    7.3249   27.6860 C   0  0  0  0  0  0  0  0  0  0  0  0
   21.1446    8.5150   28.2363 N   0  0  0  0  0  0  0  0  0  0  0  0
   21.1791    9.4066   27.2006 C   0  0  0  0  0  0  0  0  0  0  0  0
   23.2311    5.9240   21.3478 N   0  0  0  0  0  0  0  0  0  0  0  0
   23.9949    4.9934   20.6477 C   0  0  0  0  0  0  0  0  0  0  0  0
   24.0081    4.9045   19.2490 C   0  0  0  0  0  0  0  0  0  0  0  0
   24.8327    3.9987   18.5923 C   0  0  0  0  0  0  0  0  0  0  0  0
   25.6614    3.1667   19.3331 C   0  0  0  0  0  0  0  0  0  0  0  0
   25.6660    3.2409   20.7203 C   0  0  0  0  0  0  0  0  0  0  0  0
   24.8403    4.1487   21.3729 C   0  0  0  0  0  0  0  0  0  0  0  0
   22.0982    8.8929   16.8355 C   0  0  0  0  0  0  0  0  0  0  0  0
   22.6263    8.8241   15.8039 N   0  0  0  0  0  0  0  0  0  0  0  0
   19.9978   10.7405   17.7617 H   0  0  0  0  0  0  0  0  0  0  0  0
   19.5566    9.9148   22.1591 H   0  0  0  0  0  0  0  0  0  0  0  0
   20.1455    7.5896   23.8563 H   0  0  0  0  0  0  0  0  0  0  0  0
   19.1705    8.9827   24.2888 H   0  0  0  0  0  0  0  0  0  0  0  0
   21.2458   10.3489   24.6070 H   0  0  0  0  0  0  0  0  0  0  0  0
   22.2561    8.9869   24.1382 H   0  0  0  0  0  0  0  0  0  0  0  0
   21.3717    6.6339   25.6807 H   0  0  0  0  0  0  0  0  0  0  0  0
   21.2255    6.3810   28.2054 H   0  0  0  0  0  0  0  0  0  0  0  0
   21.1196   10.4738   27.3570 H   0  0  0  0  0  0  0  0  0  0  0  0
   23.1669    5.7842   22.3416 H   0  0  0  0  0  0  0  0  0  0  0  0
   23.3718    5.5314   18.6306 H   0  0  0  0  0  0  0  0  0  0  0  0
   24.8212    3.9514   17.5081 H   0  0  0  0  0  0  0  0  0  0  0  0
   26.3144    2.4607   18.8237 H   0  0  0  0  0  0  0  0  0  0  0  0
   26.3177    2.5959   21.3010 H   0  0  0  0  0  0  0  0  0  0  0  0
   24.8585    4.2091   22.4619 H   0  0  0  0  0  0  0  0  0  0  0  0
  1  2  1  0  0  0  0
  1  5  1  0  0  0  0
  2  3  2  0  0  0  0
  2 27  1  0  0  0  0
  3  4  1  0  0  0  0
  3 25  1  0  0  0  0
  4  5  2  0  0  0  0
  4  6  1  0  0  0  0
  5  9  1  0  0  0  0
  6  7  2  0  0  0  0
  7  8  1  0  0  0  0
  7 18  1  0  0  0  0
  8  9  2  0  0  0  0
  9 10  1  0  0  0  0
 10 11  1  0  0  0  0
 10 28  1  0  0  0  0
 11 12  1  0  0  0  0
 11 29  1  0  0  0  0
 11 30  1  0  0  0  0
 12 13  1  0  0  0  0
 12 31  1  0  0  0  0
 12 32  1  0  0  0  0
 13 14  1  0  0  0  0
 13 17  2  0  0  0  0
 14 15  2  0  0  0  0
 14 33  1  0  0  0  0
 15 16  1  0  0  0  0
 15 34  1  0  0  0  0
 16 17  1  0  0  0  0
 17 35  1  0  0  0  0
 18 19  1  0  0  0  0
 18 36  1  0  0  0  0
 19 20  2  0  0  0  0
 19 24  1  0  0  0  0
 20 21  1  0  0  0  0
 20 37  1  0  0  0  0
 21 22  2  0  0  0  0
 21 38  1  0  0  0  0
 22 23  1  0  0  0  0
 22 39  1  0  0  0  0
 23 24  2  0  0  0  0
 23 40  1  0  0  0  0
 24 41  1  0  0  0  0
 25 26  3  0  0  0  0
M  CHG  2   5   1  14   1
M  END
$$$$
