P44
 OpenBabel04051918513D

 47 50  0  0  0  0  0  0  0  0999 V2000
   20.0800    9.5944   19.7603 N   0  0  0  0  0  0  0  0  0  0  0  0
   20.3933    9.8040   18.4757 C   0  0  0  0  0  0  0  0  0  0  0  0
   21.3814    8.9181   18.0054 C   0  0  0  0  0  0  0  0  0  0  0  0
   21.6713    8.0902   19.0660 C   0  0  0  0  0  0  0  0  0  0  0  0
   20.8851    8.5431   20.0873 N   0  3  0  0  0  0  0  0  0  0  0  0
   22.5201    7.0473   19.2604 N   0  0  0  0  0  0  0  0  0  0  0  0
   22.5727    6.5354   20.4621 C   0  0  0  0  0  0  0  0  0  0  0  0
   21.8276    6.9957   21.5106 N   0  0  0  0  0  0  0  0  0  0  0  0
   20.9814    7.9643   21.3552 C   0  0  0  0  0  0  0  0  0  0  0  0
   20.2004    8.4740   22.3626 N   0  0  0  0  0  0  0  0  0  0  0  0
   20.2516    8.1223   23.7145 C   0  0  0  0  0  0  0  0  0  0  0  0
   20.6443    6.8584   24.1825 C   0  0  0  0  0  0  0  0  0  0  0  0
   20.6535    6.5627   25.5451 C   0  0  0  0  0  0  0  0  0  0  0  0
   20.3002    7.5491   26.4592 C   0  0  0  0  0  0  0  0  0  0  0  0
   19.9821    8.8302   26.0164 C   0  0  0  0  0  0  0  0  0  0  0  0
   19.9708    9.1158   24.6541 C   0  0  0  0  0  0  0  0  0  0  0  0
   23.3996    5.4887   20.7095 N   0  0  0  0  0  0  0  0  0  0  0  0
   23.5582    4.8580   22.0039 C   0  0  0  0  0  0  0  0  0  0  0  0
   22.5059    3.7632   22.2299 C   0  0  0  0  0  0  0  0  0  0  0  0
   22.6628    2.6073   21.2357 C   0  0  0  0  0  0  0  0  0  0  0  0
   21.5732    1.5642   21.4614 C   0  0  0  0  0  0  0  0  0  0  0  0
   21.6171    1.0189   22.8842 C   0  0  0  0  0  0  0  0  0  0  0  0
   21.5059    2.1436   23.9085 C   0  0  0  0  0  0  0  0  0  0  0  0
   22.5554    3.2303   23.6727 C   0  0  0  0  0  0  0  0  0  0  0  0
   21.9932    8.8726   16.7296 C   0  0  0  0  0  0  0  0  0  0  0  0
   22.4931    8.8592   15.6786 N   0  0  0  0  0  0  0  0  0  0  0  0
   19.8890   10.5958   17.9170 H   0  0  0  0  0  0  0  0  0  0  0  0
   19.5556    9.2134   22.1098 H   0  0  0  0  0  0  0  0  0  0  0  0
   20.9058    6.0674   23.4881 H   0  0  0  0  0  0  0  0  0  0  0  0
   20.9123    5.5623   25.8850 H   0  0  0  0  0  0  0  0  0  0  0  0
   20.2780    7.3208   27.5208 H   0  0  0  0  0  0  0  0  0  0  0  0
   19.7339    9.6118   26.7283 H   0  0  0  0  0  0  0  0  0  0  0  0
   19.7462   10.1251   24.3178 H   0  0  0  0  0  0  0  0  0  0  0  0
   23.8996    5.1159   19.9156 H   0  0  0  0  0  0  0  0  0  0  0  0
   23.4716    5.6122   22.7951 H   0  0  0  0  0  0  0  0  0  0  0  0
   24.5693    4.4451   22.0801 H   0  0  0  0  0  0  0  0  0  0  0  0
   21.5116    4.2020   22.0749 H   0  0  0  0  0  0  0  0  0  0  0  0
   23.6505    2.1413   21.3471 H   0  0  0  0  0  0  0  0  0  0  0  0
   22.5939    2.9813   20.2088 H   0  0  0  0  0  0  0  0  0  0  0  0
   21.6880    0.7463   20.7436 H   0  0  0  0  0  0  0  0  0  0  0  0
   20.5931    2.0237   21.2809 H   0  0  0  0  0  0  0  0  0  0  0  0
   22.5569    0.4750   23.0388 H   0  0  0  0  0  0  0  0  0  0  0  0
   20.8003    0.3033   23.0300 H   0  0  0  0  0  0  0  0  0  0  0  0
   21.6159    1.7346   24.9191 H   0  0  0  0  0  0  0  0  0  0  0  0
   20.5049    2.5887   23.8479 H   0  0  0  0  0  0  0  0  0  0  0  0
   22.3820    4.0501   24.3783 H   0  0  0  0  0  0  0  0  0  0  0  0
   23.5500    2.8220   23.8919 H   0  0  0  0  0  0  0  0  0  0  0  0
  1  2  1  0  0  0  0
  1  5  1  0  0  0  0
  2  3  2  0  0  0  0
  2 27  1  0  0  0  0
  3  4  1  0  0  0  0
  3 25  1  0  0  0  0
  4  5  2  0  0  0  0
  4  6  1  0  0  0  0
  5  9  1  0  0  0  0
  6  7  2  0  0  0  0
  7  8  1  0  0  0  0
  7 17  1  0  0  0  0
  8  9  2  0  0  0  0
  9 10  1  0  0  0  0
 10 11  1  0  0  0  0
 10 28  1  0  0  0  0
 11 12  2  0  0  0  0
 11 16  1  0  0  0  0
 12 13  1  0  0  0  0
 12 29  1  0  0  0  0
 13 14  2  0  0  0  0
 13 30  1  0  0  0  0
 14 15  1  0  0  0  0
 14 31  1  0  0  0  0
 15 16  2  0  0  0  0
 15 32  1  0  0  0  0
 16 33  1  0  0  0  0
 17 18  1  0  0  0  0
 17 34  1  0  0  0  0
 18 19  1  0  0  0  0
 18 35  1  0  0  0  0
 18 36  1  0  0  0  0
 19 20  1  0  0  0  0
 19 24  1  0  0  0  0
 19 37  1  0  0  0  0
 20 21  1  0  0  0  0
 20 38  1  0  0  0  0
 20 39  1  0  0  0  0
 21 22  1  0  0  0  0
 21 40  1  0  0  0  0
 21 41  1  0  0  0  0
 22 23  1  0  0  0  0
 22 42  1  0  0  0  0
 22 43  1  0  0  0  0
 23 24  1  0  0  0  0
 23 44  1  0  0  0  0
 23 45  1  0  0  0  0
 24 46  1  0  0  0  0
 24 47  1  0  0  0  0
 25 26  3  0  0  0  0
M  CHG  1   5   1
M  END
$$$$
