P55
 OpenBabel04051918523D

 47 50  0  0  0  0  0  0  0  0999 V2000
   19.8565    9.4992   19.7549 N   0  0  0  0  0  0  0  0  0  0  0  0
   20.2161    9.7032   18.4757 C   0  0  0  0  0  0  0  0  0  0  0  0
   21.2328    8.8222   18.0430 C   0  0  0  0  0  0  0  0  0  0  0  0
   21.4988    8.0228   19.1395 C   0  0  0  0  0  0  0  0  0  0  0  0
   20.6642    8.4914   20.1202 N   0  3  0  0  0  0  0  0  0  0  0  0
   22.3283    6.9855   19.4031 N   0  0  0  0  0  0  0  0  0  0  0  0
   22.3518    6.5021   20.6189 C   0  0  0  0  0  0  0  0  0  0  0  0
   21.5602    6.9752   21.6249 N   0  0  0  0  0  0  0  0  0  0  0  0
   20.7205    7.9434   21.4107 C   0  0  0  0  0  0  0  0  0  0  0  0
   19.8907    8.4715   22.3665 N   0  0  0  0  0  0  0  0  0  0  0  0
   19.9206    8.1298   23.7245 C   0  0  0  0  0  0  0  0  0  0  0  0
   20.1242    6.8098   24.1557 C   0  0  0  0  0  0  0  0  0  0  0  0
   20.1238    6.4860   25.5114 C   0  0  0  0  0  0  0  0  0  0  0  0
   19.9585    7.4910   26.4498 C   0  0  0  0  0  0  0  0  0  0  0  0
   19.8392    8.8197   26.0445 C   0  0  0  0  0  0  0  0  0  0  0  0
   19.8354    9.1391   24.6852 C   0  0  0  0  0  0  0  0  0  0  0  0
   23.1547    5.4216   20.9178 N   0  0  0  0  0  0  0  0  0  0  0  0
   23.2601    4.8758   22.2851 C   0  0  0  0  0  0  0  0  0  0  0  0
   22.5409    3.5206   22.4028 C   0  0  0  0  0  0  0  0  0  0  0  0
   23.0122    2.5850   21.2891 N   0  3  0  0  0  0  0  0  0  0  0  0
   22.8338    3.2041   19.9095 C   0  0  0  0  0  0  0  0  0  0  0  0
   23.5615    4.5459   19.8195 C   0  0  0  0  0  0  0  0  0  0  0  0
   22.4511    1.1935   21.3609 C   0  0  0  0  0  0  0  0  0  0  0  0
   20.9376    1.1813   21.2596 C   0  0  0  0  0  0  0  0  0  0  0  0
   21.8383    8.7607   16.7504 C   0  0  0  0  0  0  0  0  0  0  0  0
   22.3265    8.7284   15.7028 N   0  0  0  0  0  0  0  0  0  0  0  0
   19.7233   10.4778   17.9029 H   0  0  0  0  0  0  0  0  0  0  0  0
   19.2806    9.2378   22.0951 H   0  0  0  0  0  0  0  0  0  0  0  0
   20.2404    6.0111   23.4308 H   0  0  0  0  0  0  0  0  0  0  0  0
   20.2388    5.4508   25.8231 H   0  0  0  0  0  0  0  0  0  0  0  0
   19.9185    7.2447   27.5098 H   0  0  0  0  0  0  0  0  0  0  0  0
   19.7432    9.6087   26.7832 H   0  0  0  0  0  0  0  0  0  0  0  0
   19.7779   10.1829   24.3840 H   0  0  0  0  0  0  0  0  0  0  0  0
   22.8540    5.5483   23.0498 H   0  0  0  0  0  0  0  0  0  0  0  0
   24.3182    4.7391   22.5373 H   0  0  0  0  0  0  0  0  0  0  0  0
   21.4582    3.6463   22.3092 H   0  0  0  0  0  0  0  0  0  0  0  0
   22.7761    3.0277   23.3532 H   0  0  0  0  0  0  0  0  0  0  0  0
   21.7602    3.3313   19.7387 H   0  0  0  0  0  0  0  0  0  0  0  0
   23.2491    2.4995   19.1835 H   0  0  0  0  0  0  0  0  0  0  0  0
   24.6449    4.4079   19.8365 H   0  0  0  0  0  0  0  0  0  0  0  0
   23.3104    4.9676   18.8404 H   0  0  0  0  0  0  0  0  0  0  0  0
   22.7946    0.7585   22.3039 H   0  0  0  0  0  0  0  0  0  0  0  0
   22.9023    0.6333   20.5347 H   0  0  0  0  0  0  0  0  0  0  0  0
   20.5745    0.1516   21.2897 H   0  0  0  0  0  0  0  0  0  0  0  0
   20.5849    1.6255   20.3241 H   0  0  0  0  0  0  0  0  0  0  0  0
   20.4727    1.7201   22.0897 H   0  0  0  0  0  0  0  0  0  0  0  0
   24.0281    2.4933   21.4231 H   0  0  0  0  0  0  0  0  0  0  0  0
  1  2  1  0  0  0  0
  1  5  1  0  0  0  0
  2  3  2  0  0  0  0
  2 27  1  0  0  0  0
  3  4  1  0  0  0  0
  3 25  1  0  0  0  0
  4  5  2  0  0  0  0
  4  6  1  0  0  0  0
  5  9  1  0  0  0  0
  6  7  2  0  0  0  0
  7  8  1  0  0  0  0
  7 17  1  0  0  0  0
  8  9  2  0  0  0  0
  9 10  1  0  0  0  0
 10 11  1  0  0  0  0
 10 28  1  0  0  0  0
 11 12  2  0  0  0  0
 11 16  1  0  0  0  0
 12 13  1  0  0  0  0
 12 29  1  0  0  0  0
 13 14  2  0  0  0  0
 13 30  1  0  0  0  0
 14 15  1  0  0  0  0
 14 31  1  0  0  0  0
 15 16  2  0  0  0  0
 15 32  1  0  0  0  0
 16 33  1  0  0  0  0
 17 18  1  0  0  0  0
 17 22  1  0  0  0  0
 18 19  1  0  0  0  0
 18 34  1  0  0  0  0
 18 35  1  0  0  0  0
 19 20  1  0  0  0  0
 19 36  1  0  0  0  0
 19 37  1  0  0  0  0
 20 21  1  0  0  0  0
 20 23  1  0  0  0  0
 20 47  1  0  0  0  0
 21 22  1  0  0  0  0
 21 38  1  0  0  0  0
 21 39  1  0  0  0  0
 22 40  1  0  0  0  0
 22 41  1  0  0  0  0
 23 24  1  0  0  0  0
 23 42  1  0  0  0  0
 23 43  1  0  0  0  0
 24 44  1  0  0  0  0
 24 45  1  0  0  0  0
 24 46  1  0  0  0  0
 25 26  3  0  0  0  0
M  CHG  2   5   1  20   1
M  END
$$$$
