P83
 OpenBabel04051919473D

 37 39  0  0  1  0  0  0  0  0999 V2000
  125.1788  105.1807  -41.0319 C   0  0  0  0  0  0  0  0  0  0  0  0
  125.0500  106.5757  -40.9468 C   0  0  0  0  0  0  0  0  0  0  0  0
  124.7303  107.3507  -42.0659 C   0  0  2  0  0  0  0  0  0  0  0  0
  124.5081  106.7051  -43.2993 C   0  0  0  0  0  0  0  0  0  0  0  0
  124.6365  105.2943  -43.4154 C   0  0  1  0  0  0  0  0  0  0  0  0
  124.5047  104.3723  -44.5014 C   0  0  1  0  0  0  0  0  0  0  0  0
  124.1879  104.5167  -45.8715 C   0  0  0  0  0  0  0  0  0  0  0  0
  124.1373  103.3909  -46.7035 C   0  0  0  0  0  0  0  0  0  0  0  0
  124.4025  102.1287  -46.1902 C   0  0  0  0  0  0  0  0  0  0  0  0
  124.7258  101.9569  -44.8401 C   0  0  0  0  0  0  0  0  0  0  0  0
  124.7700  103.0924  -44.0084 C   0  0  1  0  0  0  0  0  0  0  0  0
  125.0611  103.2302  -42.6629 N   0  3  2  0  0  0  0  0  0  0  0  0
  124.9738  104.5591  -42.2755 C   0  0  1  0  0  0  0  0  0  0  0  0
  125.4183  102.1248  -41.7812 C   0  0  0  0  0  0  0  0  0  0  0  0
  126.9218  101.9452  -41.6524 C   0  0  0  0  0  0  0  0  0  0  0  0
  124.6368  108.8478  -41.9375 C   0  0  0  0  0  0  0  0  0  0  0  0
  123.2526  109.3052  -41.6166 N   0  3  0  0  0  0  0  0  0  0  0  0
  123.1413  110.7613  -41.3409 C   0  0  0  0  0  0  0  0  0  0  0  0
  125.4561  104.6060  -40.1511 H   0  0  0  0  0  0  0  0  0  0  0  0
  125.2359  107.0433  -39.9809 H   0  0  0  0  0  0  0  0  0  0  0  0
  124.2676  107.2734  -44.1951 H   0  0  0  0  0  0  0  0  0  0  0  0
  123.9829  105.4974  -46.2874 H   0  0  0  0  0  0  0  0  0  0  0  0
  123.8917  103.5076  -47.7563 H   0  0  0  0  0  0  0  0  0  0  0  0
  124.3615  101.2622  -46.8470 H   0  0  0  0  0  0  0  0  0  0  0  0
  124.9355  100.9596  -44.4628 H   0  0  0  0  0  0  0  0  0  0  0  0
  124.9601  101.2091  -42.1693 H   0  0  0  0  0  0  0  0  0  0  0  0
  124.9639  102.3121  -40.8019 H   0  0  0  0  0  0  0  0  0  0  0  0
  127.1503  101.1031  -40.9912 H   0  0  0  0  0  0  0  0  0  0  0  0
  127.3939  102.8407  -41.2353 H   0  0  0  0  0  0  0  0  0  0  0  0
  127.3819  101.7472  -42.6262 H   0  0  0  0  0  0  0  0  0  0  0  0
  124.9415  109.3500  -42.8630 H   0  0  0  0  0  0  0  0  0  0  0  0
  125.2865  109.2037  -41.1291 H   0  0  0  0  0  0  0  0  0  0  0  0
  122.6335  109.0450  -42.3951 H   0  0  0  0  0  0  0  0  0  0  0  0
  122.0933  110.9807  -41.1240 H   0  0  0  0  0  0  0  0  0  0  0  0
  123.4720  111.3085  -42.2271 H   0  0  0  0  0  0  0  0  0  0  0  0
  123.7657  110.9983  -40.4752 H   0  0  0  0  0  0  0  0  0  0  0  0
  122.9116  108.7708  -40.8069 H   0  0  0  0  0  0  0  0  0  0  0  0
  1  2  1  0  0  0  0
  1 19  1  0  0  0  0
  2  3  1  0  0  0  0
  2 20  1  0  0  0  0
  3  4  1  0  0  0  0
  3 16  1  6  0  0  0
  4 21  1  0  0  0  0
  5  4  1  6  0  0  0
  5  6  1  0  0  0  0
  5 13  1  0  0  0  0
  6  7  1  6  0  0  0
  6 11  1  0  0  0  0
  7  8  1  0  0  0  0
  7 22  1  0  0  0  0
  8  9  1  0  0  0  0
  8 23  1  0  0  0  0
  9 10  1  0  0  0  0
  9 24  1  0  0  0  0
 10 25  1  0  0  0  0
 11 10  1  6  0  0  0
 11 12  1  0  0  0  0
 12 13  1  0  0  0  0
 12 14  1  6  0  0  0
 13  1  1  6  0  0  0
 14 15  1  0  0  0  0
 14 26  1  0  0  0  0
 14 27  1  0  0  0  0
 15 28  1  0  0  0  0
 15 29  1  0  0  0  0
 15 30  1  0  0  0  0
 16 17  1  0  0  0  0
 16 31  1  0  0  0  0
 16 32  1  0  0  0  0
 17 18  1  0  0  0  0
 17 33  1  0  0  0  0
 17 37  1  0  0  0  0
 18 34  1  0  0  0  0
 18 35  1  0  0  0  0
 18 36  1  0  0  0  0
M  CHG  2  12   1  17   1
M  END
$$$$
