PD2
 OpenBabel04051918023D

 15 15  0  0  0  0  0  0  0  0999 V2000
   19.3926   49.2102   66.3260 O   0  0  0  0  0  0  0  0  0  0  0  0
   18.2225   49.0749   66.8037 C   0  0  0  0  0  0  0  0  0  0  0  0
   17.2558   49.8846   66.6138 O   0  0  0  0  0  0  0  0  0  0  0  0
   17.9236   47.8574   67.6427 C   0  0  0  0  0  0  0  0  0  0  0  0
   16.5997   47.4112   67.7860 C   0  0  0  0  0  0  0  0  0  0  0  0
   16.3366   46.3089   68.5766 C   0  0  0  0  0  0  0  0  0  0  0  0
   18.9341   47.1537   68.3132 C   0  0  0  0  0  0  0  0  0  0  0  0
   18.5918   46.0337   69.0991 C   0  0  0  0  0  0  0  0  0  0  0  0
   17.2855   45.6202   69.2220 N   0  0  0  0  0  0  0  0  0  0  0  0
   19.6807   45.2525   69.8418 C   0  0  0  0  0  0  0  0  0  0  0  0
   20.8860   45.6697   69.7675 O   0  0  0  0  0  0  0  0  0  0  0  0
   19.3250   44.2192   70.5045 O   0  0  0  0  0  0  0  0  0  0  0  0
   15.7969   47.9319   67.2862 H   0  0  0  0  0  0  0  0  0  0  0  0
   15.3230   45.9471   68.7142 H   0  0  0  0  0  0  0  0  0  0  0  0
   19.9692   47.4772   68.2359 H   0  0  0  0  0  0  0  0  0  0  0  0
  1  2  2  0  0  0  0
  2  3  1  0  0  0  0
  2  4  1  0  0  0  0
  4  5  2  0  0  0  0
  4  7  1  0  0  0  0
  5  6  1  0  0  0  0
  5 13  1  0  0  0  0
  6  9  2  0  0  0  0
  6 14  1  0  0  0  0
  7  8  2  0  0  0  0
  7 15  1  0  0  0  0
  8  9  1  0  0  0  0
  8 10  1  0  0  0  0
 10 11  2  0  0  0  0
 10 12  1  0  0  0  0
M  END
$$$$
