PFH
 OpenBabel04051918403D

 53 57  0  0  1  0  0  0  0  0999 V2000
   14.0156   16.0689   44.5037 C   0  0  0  0  0  0  0  0  0  0  0  0
   11.9713   18.9147   45.6779 C   0  0  0  0  0  0  0  0  0  0  0  0
   12.5073   17.9486   44.7714 C   0  0  0  0  0  0  0  0  0  0  0  0
   13.2431   18.0286   47.3778 C   0  0  0  0  0  0  0  0  0  0  0  0
   11.6513   23.4050   42.9070 C   0  0  0  0  0  0  0  0  0  0  0  0
    9.7039   21.8140   45.6684 C   0  0  0  0  0  0  0  0  0  0  0  0
   11.2782   20.7088   44.1646 C   0  0  0  0  0  0  0  0  0  0  0  0
   10.4627   20.6926   46.3916 C   0  0  0  0  0  0  0  0  0  0  0  0
   12.8511   23.9597   40.4214 C   0  0  0  0  0  0  0  0  0  0  0  0
   11.4775   17.4130   40.5647 C   0  0  0  0  0  0  0  0  0  0  0  0
   12.4857   16.6591   41.2315 O   0  0  0  0  0  0  0  0  0  0  0  0
   12.7352   16.8391   42.5718 C   0  0  0  0  0  0  0  0  0  0  0  0
   13.6715   15.9668   43.1413 C   0  0  0  0  0  0  0  0  0  0  0  0
   14.1824   15.0212   42.2859 O   0  0  0  0  0  0  0  0  0  0  0  0
   15.3586   14.3701   42.7262 C   0  0  0  0  0  0  0  0  0  0  0  0
   12.1684   17.8073   43.3887 C   0  0  0  0  0  0  0  0  0  0  0  0
   13.4389   17.0471   45.3224 C   0  0  0  0  0  0  0  0  0  0  0  0
   13.8011   17.0873   46.6118 N   0  0  0  0  0  0  0  0  0  0  0  0
   12.3467   18.9361   46.9757 N   0  0  0  0  0  0  0  0  0  0  0  0
   10.9841   19.8481   45.3077 N   0  0  0  0  0  0  0  0  0  0  0  0
   10.3544   21.9453   44.2802 C   0  0  2  0  0  0  0  0  0  0  0  0
   11.1025   23.1782   44.1552 O   0  0  0  0  0  0  0  0  0  0  0  0
   12.4696   24.5223   42.7609 C   0  0  0  0  0  0  0  0  0  0  0  0
   13.0741   24.8032   41.5292 C   0  0  0  0  0  0  0  0  0  0  0  0
   13.4480   24.2441   39.1719 C   0  0  0  0  0  0  0  0  0  0  0  0
   12.0404   22.8304   40.5609 C   0  0  0  0  0  0  0  0  0  0  0  0
   11.4457   22.5771   41.8000 C   0  0  0  0  0  0  0  0  0  0  0  0
   11.8041   21.9679   39.4810 C   0  0  0  0  0  0  0  0  0  0  0  0
   12.3762   22.2528   38.2544 C   0  0  0  0  0  0  0  0  0  0  0  0
   13.1928   23.3789   38.1074 C   0  0  0  0  0  0  0  0  0  0  0  0
   14.7408   15.3801   44.9349 H   0  0  0  0  0  0  0  0  0  0  0  0
   13.5397   18.0659   48.4266 H   0  0  0  0  0  0  0  0  0  0  0  0
    9.7558   22.7468   46.2373 H   0  0  0  0  0  0  0  0  0  0  0  0
    8.6431   21.5269   45.5679 H   0  0  0  0  0  0  0  0  0  0  0  0
   11.0479   20.1931   43.2307 H   0  0  0  0  0  0  0  0  0  0  0  0
   12.3312   21.0102   44.1483 H   0  0  0  0  0  0  0  0  0  0  0  0
    9.7939   20.1165   47.0550 H   0  0  0  0  0  0  0  0  0  0  0  0
   11.2707   21.1174   47.0076 H   0  0  0  0  0  0  0  0  0  0  0  0
   11.4401   17.1142   39.5009 H   0  0  0  0  0  0  0  0  0  0  0  0
   11.7024   18.4826   40.6044 H   0  0  0  0  0  0  0  0  0  0  0  0
   10.4949   17.2159   41.0033 H   0  0  0  0  0  0  0  0  0  0  0  0
   15.6633   13.6543   41.9565 H   0  0  0  0  0  0  0  0  0  0  0  0
   15.1632   13.8232   43.6517 H   0  0  0  0  0  0  0  0  0  0  0  0
   16.1582   15.1025   42.8726 H   0  0  0  0  0  0  0  0  0  0  0  0
   11.4424   18.4692   42.9601 H   0  0  0  0  0  0  0  0  0  0  0  0
    9.5655   21.9483   43.5093 H   0  0  0  0  0  0  0  0  0  0  0  0
   12.6474   25.1889   43.6005 H   0  0  0  0  0  0  0  0  0  0  0  0
   13.7075   25.6842   41.4530 H   0  0  0  0  0  0  0  0  0  0  0  0
   14.0845   25.1116   39.0175 H   0  0  0  0  0  0  0  0  0  0  0  0
   10.8052   21.7094   41.8817 H   0  0  0  0  0  0  0  0  0  0  0  0
   11.1754   21.0787   39.5811 H   0  0  0  0  0  0  0  0  0  0  0  0
   12.1858   21.5981   37.4071 H   0  0  0  0  0  0  0  0  0  0  0  0
   13.6418   23.5855   37.1422 H   0  0  0  0  0  0  0  0  0  0  0  0
  1 13  2  0  0  0  0
  1 17  1  0  0  0  0
  1 31  1  0  0  0  0
  2  3  2  0  0  0  0
  2 19  1  0  0  0  0
  2 20  1  0  0  0  0
  3 16  1  0  0  0  0
  3 17  1  0  0  0  0
  4 18  1  0  0  0  0
  4 19  2  0  0  0  0
  4 32  1  0  0  0  0
  5 22  1  0  0  0  0
  5 23  2  0  0  0  0
  5 27  1  0  0  0  0
  6  8  1  0  0  0  0
  6 21  1  0  0  0  0
  6 33  1  0  0  0  0
  6 34  1  0  0  0  0
  7 20  1  0  0  0  0
  7 21  1  0  0  0  0
  7 35  1  0  0  0  0
  7 36  1  0  0  0  0
  8 20  1  0  0  0  0
  8 37  1  0  0  0  0
  8 38  1  0  0  0  0
  9 24  2  0  0  0  0
  9 25  1  0  0  0  0
  9 26  1  0  0  0  0
 10 11  1  0  0  0  0
 10 39  1  0  0  0  0
 10 40  1  0  0  0  0
 10 41  1  0  0  0  0
 11 12  1  0  0  0  0
 12 13  1  0  0  0  0
 12 16  2  0  0  0  0
 13 14  1  0  0  0  0
 14 15  1  0  0  0  0
 15 42  1  0  0  0  0
 15 43  1  0  0  0  0
 15 44  1  0  0  0  0
 16 45  1  0  0  0  0
 17 18  2  0  0  0  0
 21 22  1  0  0  0  0
 21 46  1  6  0  0  0
 23 24  1  0  0  0  0
 23 47  1  0  0  0  0
 24 48  1  0  0  0  0
 25 30  2  0  0  0  0
 25 49  1  0  0  0  0
 26 27  2  0  0  0  0
 26 28  1  0  0  0  0
 27 50  1  0  0  0  0
 28 29  2  0  0  0  0
 28 51  1  0  0  0  0
 29 30  1  0  0  0  0
 29 52  1  0  0  0  0
 30 53  1  0  0  0  0
M  END
$$$$
