PFJ
 OpenBabel04051918403D

 51 55  0  0  1  0  0  0  0  0999 V2000
   13.9803   16.1799   44.5762 C   0  0  0  0  0  0  0  0  0  0  0  0
   12.0116   19.0414   45.7443 C   0  0  0  0  0  0  0  0  0  0  0  0
   12.5016   18.0565   44.8617 C   0  0  0  0  0  0  0  0  0  0  0  0
   13.2143   18.0740   47.4785 C   0  0  0  0  0  0  0  0  0  0  0  0
   11.8786   23.3224   43.0315 C   0  0  0  0  0  0  0  0  0  0  0  0
    9.7500   21.9457   45.6777 C   0  0  0  0  0  0  0  0  0  0  0  0
   10.7072   20.4942   44.0643 C   0  0  0  0  0  0  0  0  0  0  0  0
   10.6548   20.9630   46.4149 C   0  0  0  0  0  0  0  0  0  0  0  0
   13.0645   24.1556   40.7418 C   0  0  0  0  0  0  0  0  0  0  0  0
   11.5184   17.3585   40.5303 C   0  0  0  0  0  0  0  0  0  0  0  0
   12.6070   16.8252   41.2821 O   0  0  0  0  0  0  0  0  0  0  0  0
   12.7621   16.9728   42.6293 C   0  0  0  0  0  0  0  0  0  0  0  0
   12.1955   17.9340   43.4610 C   0  0  0  0  0  0  0  0  0  0  0  0
   12.3593   19.0123   47.0638 N   0  0  0  0  0  0  0  0  0  0  0  0
   13.7689   17.1363   46.7088 N   0  0  0  0  0  0  0  0  0  0  0  0
   13.4253   17.1438   45.4155 C   0  0  0  0  0  0  0  0  0  0  0  0
   13.6573   16.0811   43.2152 C   0  0  0  0  0  0  0  0  0  0  0  0
   14.0609   15.0463   42.4103 O   0  0  0  0  0  0  0  0  0  0  0  0
   15.3681   14.5409   42.6063 C   0  0  0  0  0  0  0  0  0  0  0  0
   11.1323   20.0385   45.3886 N   0  0  0  0  0  0  0  0  0  0  0  0
   10.2776   21.9572   44.2418 C   0  0  2  0  0  0  0  0  0  0  0  0
   11.3534   22.9243   44.2390 O   0  0  0  0  0  0  0  0  0  0  0  0
   11.7089   22.5438   41.9482 N   0  0  0  0  0  0  0  0  0  0  0  0
   12.3104   22.9486   40.8122 C   0  0  0  0  0  0  0  0  0  0  0  0
   12.1710   22.1616   39.6746 C   0  0  0  0  0  0  0  0  0  0  0  0
   12.6828   22.5553   38.4387 C   0  0  0  0  0  0  0  0  0  0  0  0
   13.4218   23.7272   38.3561 C   0  0  0  0  0  0  0  0  0  0  0  0
   13.6137   24.5084   39.5038 C   0  0  0  0  0  0  0  0  0  0  0  0
   13.2355   24.9283   41.8440 N   0  0  0  0  0  0  0  0  0  0  0  0
   12.6456   24.4854   42.9900 C   0  0  0  0  0  0  0  0  0  0  0  0
   14.6533   15.4598   45.0276 H   0  0  0  0  0  0  0  0  0  0  0  0
   13.4859   18.0861   48.5303 H   0  0  0  0  0  0  0  0  0  0  0  0
    9.8133   22.9319   46.1362 H   0  0  0  0  0  0  0  0  0  0  0  0
    8.7148   21.5912   45.7183 H   0  0  0  0  0  0  0  0  0  0  0  0
    9.8503   19.8724   43.7573 H   0  0  0  0  0  0  0  0  0  0  0  0
   11.4904   20.4545   43.3098 H   0  0  0  0  0  0  0  0  0  0  0  0
   10.0900   20.4187   47.1830 H   0  0  0  0  0  0  0  0  0  0  0  0
   11.4902   21.4843   46.8962 H   0  0  0  0  0  0  0  0  0  0  0  0
   11.6932   17.0813   39.4767 H   0  0  0  0  0  0  0  0  0  0  0  0
   11.4631   18.4489   40.5647 H   0  0  0  0  0  0  0  0  0  0  0  0
   10.5701   16.8980   40.8188 H   0  0  0  0  0  0  0  0  0  0  0  0
   11.4816   18.5994   43.0107 H   0  0  0  0  0  0  0  0  0  0  0  0
   15.5185   13.7431   41.8769 H   0  0  0  0  0  0  0  0  0  0  0  0
   15.5040   14.0951   43.5941 H   0  0  0  0  0  0  0  0  0  0  0  0
   16.1174   15.3120   42.4126 H   0  0  0  0  0  0  0  0  0  0  0  0
    9.4872   22.2286   43.5296 H   0  0  0  0  0  0  0  0  0  0  0  0
   11.6372   21.2158   39.7482 H   0  0  0  0  0  0  0  0  0  0  0  0
   12.4894   21.9537   37.5519 H   0  0  0  0  0  0  0  0  0  0  0  0
   13.8508   24.0323   37.4029 H   0  0  0  0  0  0  0  0  0  0  0  0
   14.1924   25.4264   39.4248 H   0  0  0  0  0  0  0  0  0  0  0  0
   12.8152   25.0951   43.8766 H   0  0  0  0  0  0  0  0  0  0  0  0
  1 16  2  0  0  0  0
  1 17  1  0  0  0  0
  1 31  1  0  0  0  0
  2  3  1  0  0  0  0
  2 14  2  0  0  0  0
  2 20  1  0  0  0  0
  3 13  2  0  0  0  0
  3 16  1  0  0  0  0
  4 14  1  0  0  0  0
  4 15  2  0  0  0  0
  4 32  1  0  0  0  0
  5 22  1  0  0  0  0
  5 23  2  0  0  0  0
  5 30  1  0  0  0  0
  6  8  1  0  0  0  0
  6 21  1  0  0  0  0
  6 33  1  0  0  0  0
  6 34  1  0  0  0  0
  7 20  1  0  0  0  0
  7 21  1  0  0  0  0
  7 35  1  0  0  0  0
  7 36  1  0  0  0  0
  8 20  1  0  0  0  0
  8 37  1  0  0  0  0
  8 38  1  0  0  0  0
  9 24  2  0  0  0  0
  9 28  1  0  0  0  0
  9 29  1  0  0  0  0
 10 11  1  0  0  0  0
 10 39  1  0  0  0  0
 10 40  1  0  0  0  0
 10 41  1  0  0  0  0
 11 12  1  0  0  0  0
 12 13  1  0  0  0  0
 12 17  2  0  0  0  0
 13 42  1  0  0  0  0
 15 16  1  0  0  0  0
 17 18  1  0  0  0  0
 18 19  1  0  0  0  0
 19 43  1  0  0  0  0
 19 44  1  0  0  0  0
 19 45  1  0  0  0  0
 21 22  1  0  0  0  0
 21 46  1  6  0  0  0
 23 24  1  0  0  0  0
 24 25  1  0  0  0  0
 25 26  2  0  0  0  0
 25 47  1  0  0  0  0
 26 27  1  0  0  0  0
 26 48  1  0  0  0  0
 27 28  2  0  0  0  0
 27 49  1  0  0  0  0
 28 50  1  0  0  0  0
 29 30  2  0  0  0  0
 30 51  1  0  0  0  0
M  END
$$$$
