PGA
 OpenBabel04051919323D

 11 10  0  0  0  0  0  0  0  0999 V2000
  -17.8125   -6.3135  -12.8234 P   0  0  0  0  0  0  0  0  0  0  0  0
  -18.3330   -5.7109  -14.2485 O   0  0  0  0  0  0  0  0  0  0  0  0
  -17.2542   -7.6907  -13.1703 O   0  0  0  0  0  0  0  0  0  0  0  0
  -19.0797   -6.3568  -11.9751 O   0  0  0  0  0  0  0  0  0  0  0  0
  -16.7580   -5.3318  -12.3236 O   0  0  0  0  0  0  0  0  0  0  0  0
  -17.3811   -5.3451  -15.2507 C   0  0  0  0  0  0  0  0  0  0  0  0
  -18.0466   -4.5896  -16.4028 C   0  0  0  0  0  0  0  0  0  0  0  0
  -17.2790   -4.3376  -17.3848 O   0  0  0  0  0  0  0  0  0  0  0  0
  -19.2762   -4.2575  -16.3524 O   0  0  0  0  0  0  0  0  0  0  0  0
  -16.9186   -6.2518  -15.6461 H   0  0  0  0  0  0  0  0  0  0  0  0
  -16.6076   -4.7093  -14.8206 H   0  0  0  0  0  0  0  0  0  0  0  0
  1  2  1  0  0  0  0
  1  3  2  0  0  0  0
  1  4  1  0  0  0  0
  1  5  1  0  0  0  0
  2  6  1  0  0  0  0
  6  7  1  0  0  0  0
  6 10  1  0  0  0  0
  6 11  1  0  0  0  0
  7  8  2  0  0  0  0
  7  9  1  0  0  0  0
M  END
$$$$
