PGI
 OpenBabel04051917353D

 43 45  0  0  1  0  0  0  0  0999 V2000
   61.9341  -69.5282    8.9015 O   0  0  0  0  0  0  0  0  0  0  0  0
   62.3566  -70.8841    9.0440 C   0  0  0  0  0  0  0  0  0  0  0  0
   63.6744  -71.1519    8.2942 C   0  0  2  0  0  0  0  0  0  0  0  0
   64.9110  -70.6252    9.0735 C   0  0  1  0  0  0  0  0  0  0  0  0
   64.9860  -71.1910   10.3824 O   0  0  0  0  0  0  0  0  0  0  0  0
   66.1863  -71.0239    8.2879 C   0  0  2  0  0  0  0  0  0  0  0  0
   67.3516  -70.5995    8.9998 O   0  0  0  0  0  0  0  0  0  0  0  0
   66.2010  -70.3898    6.8802 C   0  0  1  0  0  0  0  0  0  0  0  0
   66.9906  -71.1433    5.9562 O   0  0  0  0  0  0  0  0  0  0  0  0
   63.6785  -70.5612    6.9320 N   0  3  1  0  0  0  0  0  0  0  0  0
   62.5922  -70.2270    6.1413 C   0  0  0  0  0  0  0  0  0  0  0  0
   63.0799  -69.6328    5.0004 C   0  0  1  0  0  0  0  0  0  0  0  0
   64.4550  -69.6711    5.1412 N   0  3  0  0  0  0  0  0  0  0  0  0
   64.8120  -70.1981    6.3126 C   0  0  2  0  0  0  0  0  0  0  0  0
   62.3578  -69.0862    3.8250 C   0  0  0  0  0  0  0  0  0  0  0  0
   62.5336  -67.5710    3.6958 C   0  0  0  0  0  0  0  0  0  0  0  0
   62.0179  -66.9241    2.4279 C   0  0  0  0  0  0  0  0  0  0  0  0
   62.0194  -65.5190    2.3628 C   0  0  0  0  0  0  0  0  0  0  0  0
   61.5929  -64.8499    1.2131 C   0  0  0  0  0  0  0  0  0  0  0  0
   61.5840  -67.6378    1.3035 C   0  0  0  0  0  0  0  0  0  0  0  0
   61.1567  -66.9681    0.1545 C   0  0  0  0  0  0  0  0  0  0  0  0
   61.1612  -65.5772    0.1054 C   0  0  0  0  0  0  0  0  0  0  0  0
   62.6074  -68.9277    9.2641 H   0  0  0  0  0  0  0  0  0  0  0  0
   61.5682  -71.5144    8.6174 H   0  0  0  0  0  0  0  0  0  0  0  0
   62.4155  -71.1291   10.1069 H   0  0  0  0  0  0  0  0  0  0  0  0
   63.7801  -72.2407    8.1799 H   0  0  0  0  0  0  0  0  0  0  0  0
   64.8792  -69.5325    9.1778 H   0  0  0  0  0  0  0  0  0  0  0  0
   64.3205  -70.7687   10.9601 H   0  0  0  0  0  0  0  0  0  0  0  0
   66.2509  -72.1168    8.2164 H   0  0  0  0  0  0  0  0  0  0  0  0
   67.3833  -71.0977    9.8418 H   0  0  0  0  0  0  0  0  0  0  0  0
   66.6227  -69.3795    6.9206 H   0  0  0  0  0  0  0  0  0  0  0  0
   66.7291  -72.0802    5.9991 H   0  0  0  0  0  0  0  0  0  0  0  0
   61.5887  -70.4286    6.4828 H   0  0  0  0  0  0  0  0  0  0  0  0
   61.2905  -69.3224    3.9294 H   0  0  0  0  0  0  0  0  0  0  0  0
   62.7273  -69.6201    2.9436 H   0  0  0  0  0  0  0  0  0  0  0  0
   63.5986  -67.3215    3.7753 H   0  0  0  0  0  0  0  0  0  0  0  0
   62.0294  -67.0949    4.5481 H   0  0  0  0  0  0  0  0  0  0  0  0
   62.3569  -64.9257    3.2100 H   0  0  0  0  0  0  0  0  0  0  0  0
   61.5948  -63.7640    1.1792 H   0  0  0  0  0  0  0  0  0  0  0  0
   61.5681  -68.7234    1.2814 H   0  0  0  0  0  0  0  0  0  0  0  0
   60.8219  -67.5348   -0.7147 H   0  0  0  0  0  0  0  0  0  0  0  0
   60.8220  -65.0560   -0.7925 H   0  0  0  0  0  0  0  0  0  0  0  0
   65.1379  -69.3364    4.4548 H   0  0  0  0  0  0  0  0  0  0  0  0
  1  2  1  0  0  0  0
  1 23  1  0  0  0  0
  2  3  1  0  0  0  0
  2 24  1  0  0  0  0
  2 25  1  0  0  0  0
  3  4  1  0  0  0  0
  3 10  1  0  0  0  0
  3 26  1  6  0  0  0
  4  5  1  0  0  0  0
  4  6  1  0  0  0  0
  4 27  1  1  0  0  0
  5 28  1  0  0  0  0
  6  7  1  0  0  0  0
  6  8  1  0  0  0  0
  6 29  1  6  0  0  0
  7 30  1  0  0  0  0
  8  9  1  0  0  0  0
  8 14  1  0  0  0  0
  8 31  1  1  0  0  0
  9 32  1  0  0  0  0
 10 11  1  1  0  0  0
 10 14  1  0  0  0  0
 11 12  1  0  0  0  0
 11 33  1  0  0  0  0
 12 13  1  0  0  0  0
 12 15  1  6  0  0  0
 13 43  1  0  0  0  0
 14 13  1  6  0  0  0
 15 16  1  0  0  0  0
 15 34  1  0  0  0  0
 15 35  1  0  0  0  0
 16 17  1  0  0  0  0
 16 36  1  0  0  0  0
 16 37  1  0  0  0  0
 17 18  1  0  0  0  0
 17 20  1  0  0  0  0
 18 19  1  0  0  0  0
 18 38  1  0  0  0  0
 19 22  1  0  0  0  0
 19 39  1  0  0  0  0
 20 21  1  0  0  0  0
 20 40  1  0  0  0  0
 21 22  1  0  0  0  0
 21 41  1  0  0  0  0
 22 42  1  0  0  0  0
M  CHG  2  10   1  13   1
M  END
$$$$
