PIR
 OpenBabel04051918293D

 33 34  0  0  1  0  0  0  0  0999 V2000
  107.1462   36.4840   81.8232 C   0  0  0  0  0  0  0  0  0  0  0  0
  106.5282   35.2473   82.0150 C   0  0  0  0  0  0  0  0  0  0  0  0
  106.9767   34.1751   81.2289 C   0  0  0  0  0  0  0  0  0  0  0  0
  107.9192   34.3846   80.2121 C   0  0  0  0  0  0  0  0  0  0  0  0
  108.4669   35.6513   79.9806 C   0  0  0  0  0  0  0  0  0  0  0  0
  109.4974   35.8343   79.0628 N   0  0  0  0  0  0  0  0  0  0  0  0
  108.1268   36.6800   80.8485 C   0  0  0  0  0  0  0  0  0  0  0  0
  105.3853   35.0222   82.9889 C   0  0  1  0  0  0  0  0  0  0  0  0
  105.1148   36.1560   84.0201 C   0  0  2  0  0  0  0  0  0  0  0  0
  105.3249   35.7210   85.3622 O   0  0  0  0  0  0  0  0  0  0  0  0
  103.6617   36.5971   83.8101 C   0  0  2  0  0  0  0  0  0  0  0  0
  102.8486   35.9179   84.7745 O   0  0  0  0  0  0  0  0  0  0  0  0
  103.2744   36.1155   82.4203 C   0  0  2  0  0  0  0  0  0  0  0  0
  104.0793   34.8418   82.2670 N   0  3  0  0  0  0  0  0  0  0  0  0
  103.6046   37.0390   81.2439 C   0  0  0  0  0  0  0  0  0  0  0  0
  103.7158   36.2153   80.0766 O   0  0  0  0  0  0  0  0  0  0  0  0
  106.9121   37.3775   82.4037 H   0  0  0  0  0  0  0  0  0  0  0  0
  106.6124   33.1541   81.3820 H   0  0  0  0  0  0  0  0  0  0  0  0
  108.2420   33.5439   79.5970 H   0  0  0  0  0  0  0  0  0  0  0  0
  109.6605   36.7958   78.7809 H   0  0  0  0  0  0  0  0  0  0  0  0
  109.5022   35.1928   78.2755 H   0  0  0  0  0  0  0  0  0  0  0  0
  108.6138   37.6478   80.7698 H   0  0  0  0  0  0  0  0  0  0  0  0
  105.5653   34.0724   83.5162 H   0  0  0  0  0  0  0  0  0  0  0  0
  105.7557   37.0224   83.8872 H   0  0  0  0  0  0  0  0  0  0  0  0
  104.7624   34.9442   85.5407 H   0  0  0  0  0  0  0  0  0  0  0  0
  103.5269   37.6778   83.9326 H   0  0  0  0  0  0  0  0  0  0  0  0
  103.0728   36.3141   85.6448 H   0  0  0  0  0  0  0  0  0  0  0  0
  102.2257   35.8076   82.3547 H   0  0  0  0  0  0  0  0  0  0  0  0
  104.2225   34.6684   81.2518 H   0  0  0  0  0  0  0  0  0  0  0  0
  104.5497   37.5681   81.3829 H   0  0  0  0  0  0  0  0  0  0  0  0
  102.8239   37.7908   81.0898 H   0  0  0  0  0  0  0  0  0  0  0  0
  102.8203   36.0391   79.7288 H   0  0  0  0  0  0  0  0  0  0  0  0
  103.5421   34.0593   82.6606 H   0  0  0  0  0  0  0  0  0  0  0  0
  1  7  2  0  0  0  0
  1  2  1  0  0  0  0
  1 17  1  0  0  0  0
  2  8  1  0  0  0  0
  2  3  2  0  0  0  0
  3  4  1  0  0  0  0
  3 18  1  0  0  0  0
  4  5  2  0  0  0  0
  4 19  1  0  0  0  0
  5  7  1  0  0  0  0
  5  6  1  0  0  0  0
  6 20  1  0  0  0  0
  6 21  1  0  0  0  0
  7 22  1  0  0  0  0
  8 14  1  0  0  0  0
  8  9  1  0  0  0  0
  8 23  1  1  0  0  0
  9 11  1  0  0  0  0
  9 10  1  0  0  0  0
  9 24  1  6  0  0  0
 10 25  1  0  0  0  0
 11 13  1  0  0  0  0
 11 12  1  0  0  0  0
 11 26  1  1  0  0  0
 12 27  1  0  0  0  0
 13 15  1  0  0  0  0
 13 14  1  0  0  0  0
 13 28  1  6  0  0  0
 14 29  1  0  0  0  0
 14 33  1  0  0  0  0
 15 16  1  0  0  0  0
 15 30  1  0  0  0  0
 15 31  1  0  0  0  0
 16 32  1  0  0  0  0
M  CHG  1  14   1
M  END
$$$$
