PLS
 OpenBabel04051919563D

 34 34  0  0  1  0  0  0  0  0999 V2000
   30.2958   15.8191   11.7503 N   0  0  0  0  0  0  0  0  0  0  0  0
   31.4475   16.4487   11.0375 C   0  0  1  0  0  0  0  0  0  0  0  0
   32.4483   17.1978   11.8984 C   0  0  0  0  0  0  0  0  0  0  0  0
   31.7714   18.2614   12.5745 O   0  0  0  0  0  0  0  0  0  0  0  0
   32.2771   15.3937   10.2193 C   0  0  0  0  0  0  0  0  0  0  0  0
   32.1842   14.1947   10.5860 O   0  0  0  0  0  0  0  0  0  0  0  0
   32.9173   15.8598    9.2179 O   0  0  0  0  0  0  0  0  0  0  0  0
   27.0938   13.4315   14.8392 N   0  0  0  0  0  0  0  0  0  0  0  0
   27.1109   13.7052   13.4984 C   0  0  0  0  0  0  0  0  0  0  0  0
   25.9443   13.2471   12.6794 C   0  0  0  0  0  0  0  0  0  0  0  0
   28.1666   14.3870   12.8894 C   0  0  0  0  0  0  0  0  0  0  0  0
   28.0764   14.6038   11.5306 O   0  0  0  0  0  0  0  0  0  0  0  0
   29.2488   14.8071   13.6662 C   0  0  0  0  0  0  0  0  0  0  0  0
   30.3806   15.5320   13.0170 C   0  0  0  0  0  0  0  0  0  0  0  0
   29.2671   14.5409   15.0385 C   0  0  0  0  0  0  0  0  0  0  0  0
   28.1539   13.8585   15.5603 C   0  0  0  0  0  0  0  0  0  0  0  0
   30.4046   14.9612   15.9417 C   0  0  0  0  0  0  0  0  0  0  0  0
   30.2853   16.3363   16.1701 O   0  0  0  0  0  0  0  0  0  0  0  0
   31.6461   17.2170   16.4785 P   0  0  0  0  0  0  0  0  0  0  0  0
   32.4274   16.3754   17.4974 O   0  0  0  0  0  0  0  0  0  0  0  0
   32.3033   17.3266   15.1462 O   0  0  0  0  0  0  0  0  0  0  0  0
   31.0606   18.4917   17.0335 O   0  0  0  0  0  0  0  0  0  0  0  0
   31.0007   17.1751   10.3372 H   0  0  0  0  0  0  0  0  0  0  0  0
   33.2231   17.6779   11.2885 H   0  0  0  0  0  0  0  0  0  0  0  0
   32.9768   16.5247   12.5933 H   0  0  0  0  0  0  0  0  0  0  0  0
   31.2827   17.8369   13.3176 H   0  0  0  0  0  0  0  0  0  0  0  0
   26.0491   13.4990   11.6217 H   0  0  0  0  0  0  0  0  0  0  0  0
   25.0182   13.7102   13.0338 H   0  0  0  0  0  0  0  0  0  0  0  0
   25.8386   12.1560   12.7400 H   0  0  0  0  0  0  0  0  0  0  0  0
   28.9146   15.0706   11.2904 H   0  0  0  0  0  0  0  0  0  0  0  0
   31.2481   15.7926   13.6414 H   0  0  0  0  0  0  0  0  0  0  0  0
   28.1242   13.6431   16.6229 H   0  0  0  0  0  0  0  0  0  0  0  0
   31.3598   14.6575   15.4971 H   0  0  0  0  0  0  0  0  0  0  0  0
   30.3026   14.4421   16.9018 H   0  0  0  0  0  0  0  0  0  0  0  0
  1  2  1  0  0  0  0
  1 14  2  0  0  0  0
  2  3  1  0  0  0  0
  2  5  1  0  0  0  0
  2 23  1  6  0  0  0
  3  4  1  0  0  0  0
  3 24  1  0  0  0  0
  3 25  1  0  0  0  0
  4 26  1  0  0  0  0
  5  6  2  0  0  0  0
  5  7  1  0  0  0  0
  8  9  2  0  0  0  0
  8 16  1  0  0  0  0
  9 10  1  0  0  0  0
  9 11  1  0  0  0  0
 10 27  1  0  0  0  0
 10 28  1  0  0  0  0
 10 29  1  0  0  0  0
 11 12  1  0  0  0  0
 11 13  2  0  0  0  0
 12 30  1  0  0  0  0
 13 14  1  0  0  0  0
 13 15  1  0  0  0  0
 14 31  1  0  0  0  0
 15 16  2  0  0  0  0
 15 17  1  0  0  0  0
 16 32  1  0  0  0  0
 17 18  1  0  0  0  0
 17 33  1  0  0  0  0
 17 34  1  0  0  0  0
 18 19  1  0  0  0  0
 19 20  2  0  0  0  0
 19 21  1  0  0  0  0
 19 22  1  0  0  0  0
M  END
$$$$
