PP4
 OpenBabel04051919593D

 70 72  0  0  1  0  0  0  0  0999 V2000
   18.2550    7.9289   19.6460 O   0  0  0  0  0  0  0  0  0  0  0  0
   23.9137    5.6287   16.7678 C   0  0  0  0  0  0  0  0  0  0  0  0
   23.9170    4.2571   16.5084 C   0  0  0  0  0  0  0  0  0  0  0  0
   23.9594    3.3462   17.5607 C   0  0  0  0  0  0  0  0  0  0  0  0
   24.0270    3.7987   18.8807 C   0  0  0  0  0  0  0  0  0  0  0  0
   24.0593    5.1775   19.1622 C   0  0  0  0  0  0  0  0  0  0  0  0
   23.9877    6.1014   18.0905 C   0  0  0  0  0  0  0  0  0  0  0  0
   23.9804    7.4768   18.3733 C   0  0  0  0  0  0  0  0  0  0  0  0
   24.0722    7.9541   19.6891 C   0  0  0  0  0  0  0  0  0  0  0  0
   24.1532    7.0346   20.7374 C   0  0  0  0  0  0  0  0  0  0  0  0
   24.1393    5.6661   20.4779 C   0  0  0  0  0  0  0  0  0  0  0  0
   19.1261    7.1356   19.8884 C   0  0  0  0  0  0  0  0  0  0  0  0
   24.1219    9.4435   19.9365 C   0  0  0  0  0  0  0  0  0  0  0  0
   23.3210    9.9298   21.1459 C   0  0  2  0  0  0  0  0  0  0  0  0
   19.9588    7.1394   21.0072 N   0  0  0  0  0  0  0  0  0  0  0  0
   19.9737    8.2164   21.9517 C   0  0  2  0  0  0  0  0  0  0  0  0
   21.4136    8.7111   22.1365 C   0  0  0  0  0  0  0  0  0  0  0  0
   22.0746    8.3467   23.1074 O   0  0  0  0  0  0  0  0  0  0  0  0
   19.2046    7.9266   23.2645 C   0  0  0  0  0  0  0  0  0  0  0  0
   18.8228    9.2394   23.9142 C   0  0  0  0  0  0  0  0  0  0  0  0
   17.8178    7.4603   22.8832 C   0  0  0  0  0  0  0  0  0  0  0  0
   21.9231    9.4639   21.1005 N   0  0  0  0  0  0  0  0  0  0  0  0
   23.4371   11.7821   21.2110 P   0  0  1  0  0  0  0  0  0  0  0  0
   24.8953   12.1840   21.1641 O   0  0  0  0  0  0  0  0  0  0  0  0
   22.4346   12.3608   20.2390 O   0  0  0  0  0  0  0  0  0  0  0  0
   23.5361   13.0148   23.5135 C   0  0  1  0  0  0  0  0  0  0  0  0
   22.4976   13.9413   24.0680 C   0  0  0  0  0  0  0  0  0  0  0  0
   21.5015   13.2451   24.9562 C   0  0  0  0  0  0  0  0  0  0  0  0
   20.4728   12.4928   24.4012 C   0  0  0  0  0  0  0  0  0  0  0  0
   21.6163   13.3265   26.3501 C   0  0  0  0  0  0  0  0  0  0  0  0
   19.5449   11.8920   25.2417 C   0  0  0  0  0  0  0  0  0  0  0  0
   20.7061   12.6719   27.1721 C   0  0  0  0  0  0  0  0  0  0  0  0
   19.6687   11.9459   26.6233 C   0  0  0  0  0  0  0  0  0  0  0  0
   24.3625   12.3108   24.6068 C   0  0  0  0  0  0  0  0  0  0  0  0
   25.8167   12.6889   26.4054 C   0  0  0  0  0  0  0  0  0  0  0  0
   22.8834   12.0352   22.7049 O   0  0  0  0  0  0  0  0  0  0  0  0
   24.7955   13.2150   25.5526 O   0  0  0  0  0  0  0  0  0  0  0  0
   24.6561   11.1231   24.6397 O   0  0  0  0  0  0  0  0  0  0  0  0
   23.8469    6.3242   15.9322 H   0  0  0  0  0  0  0  0  0  0  0  0
   23.8778    3.8994   15.4838 H   0  0  0  0  0  0  0  0  0  0  0  0
   23.9311    2.2804   17.3538 H   0  0  0  0  0  0  0  0  0  0  0  0
   24.0417    3.0648   19.6839 H   0  0  0  0  0  0  0  0  0  0  0  0
   23.8847    8.1997   17.5646 H   0  0  0  0  0  0  0  0  0  0  0  0
   24.2037    7.3829   21.7707 H   0  0  0  0  0  0  0  0  0  0  0  0
   24.1955    4.9863   21.3256 H   0  0  0  0  0  0  0  0  0  0  0  0
   19.3620    6.2634   19.2174 H   0  0  0  0  0  0  0  0  0  0  0  0
   25.1727    9.7314   20.0725 H   0  0  0  0  0  0  0  0  0  0  0  0
   23.7640    9.9737   19.0451 H   0  0  0  0  0  0  0  0  0  0  0  0
   23.7912    9.5681   22.0635 H   0  0  0  0  0  0  0  0  0  0  0  0
   20.6859    6.4159   21.0410 H   0  0  0  0  0  0  0  0  0  0  0  0
   19.4194    9.0351   21.4774 H   0  0  0  0  0  0  0  0  0  0  0  0
   19.7366    7.2858   23.9930 H   0  0  0  0  0  0  0  0  0  0  0  0
   18.3095    9.0988   24.8749 H   0  0  0  0  0  0  0  0  0  0  0  0
   18.1086    9.7756   23.2695 H   0  0  0  0  0  0  0  0  0  0  0  0
   19.7020    9.8597   24.0068 H   0  0  0  0  0  0  0  0  0  0  0  0
   17.8293    6.4872   22.4118 H   0  0  0  0  0  0  0  0  0  0  0  0
   17.4354    8.1907   22.1535 H   0  0  0  0  0  0  0  0  0  0  0  0
   17.1369    7.4911   23.7374 H   0  0  0  0  0  0  0  0  0  0  0  0
   21.3530    9.7992   20.3386 H   0  0  0  0  0  0  0  0  0  0  0  0
   24.2453   13.5952   22.9077 H   0  0  0  0  0  0  0  0  0  0  0  0
   21.9481   14.4145   23.2430 H   0  0  0  0  0  0  0  0  0  0  0  0
   22.9765   14.7472   24.6346 H   0  0  0  0  0  0  0  0  0  0  0  0
   20.4024   12.3647   23.3191 H   0  0  0  0  0  0  0  0  0  0  0  0
   22.4307   13.8885   26.7894 H   0  0  0  0  0  0  0  0  0  0  0  0
   18.7105   11.3586   24.8171 H   0  0  0  0  0  0  0  0  0  0  0  0
   20.8029   12.7441   28.2543 H   0  0  0  0  0  0  0  0  0  0  0  0
   18.9497   11.4257   27.2452 H   0  0  0  0  0  0  0  0  0  0  0  0
   26.0565   13.4489   27.1533 H   0  0  0  0  0  0  0  0  0  0  0  0
   26.7120   12.5026   25.8058 H   0  0  0  0  0  0  0  0  0  0  0  0
   25.5080   11.7757   26.9260 H   0  0  0  0  0  0  0  0  0  0  0  0
  1 12  2  0  0  0  0
  2  3  2  0  0  0  0
  2  7  1  0  0  0  0
  2 39  1  0  0  0  0
  3  4  1  0  0  0  0
  3 40  1  0  0  0  0
  4  5  2  0  0  0  0
  4 41  1  0  0  0  0
  5  6  1  0  0  0  0
  5 42  1  0  0  0  0
  6  7  2  0  0  0  0
  6 11  1  0  0  0  0
  7  8  1  0  0  0  0
  8  9  2  0  0  0  0
  8 43  1  0  0  0  0
  9 10  1  0  0  0  0
  9 13  1  0  0  0  0
 10 11  2  0  0  0  0
 10 44  1  0  0  0  0
 11 45  1  0  0  0  0
 12 15  1  0  0  0  0
 12 46  1  0  0  0  0
 13 14  1  0  0  0  0
 13 47  1  0  0  0  0
 13 48  1  0  0  0  0
 14 22  1  0  0  0  0
 14 23  1  0  0  0  0
 14 49  1  1  0  0  0
 15 16  1  0  0  0  0
 15 50  1  0  0  0  0
 16 17  1  0  0  0  0
 16 19  1  0  0  0  0
 16 51  1  6  0  0  0
 17 18  2  0  0  0  0
 17 22  1  0  0  0  0
 19 20  1  0  0  0  0
 19 21  1  0  0  0  0
 19 52  1  0  0  0  0
 20 53  1  0  0  0  0
 20 54  1  0  0  0  0
 20 55  1  0  0  0  0
 21 56  1  0  0  0  0
 21 57  1  0  0  0  0
 21 58  1  0  0  0  0
 22 59  1  0  0  0  0
 23 24  2  6  0  0  0
 23 25  1  0  0  0  0
 23 36  1  0  0  0  0
 26 27  1  0  0  0  0
 26 34  1  0  0  0  0
 26 36  1  0  0  0  0
 26 60  1  6  0  0  0
 27 28  1  0  0  0  0
 27 61  1  0  0  0  0
 27 62  1  0  0  0  0
 28 29  2  0  0  0  0
 28 30  1  0  0  0  0
 29 31  1  0  0  0  0
 29 63  1  0  0  0  0
 30 32  2  0  0  0  0
 30 64  1  0  0  0  0
 31 33  2  0  0  0  0
 31 65  1  0  0  0  0
 32 33  1  0  0  0  0
 32 66  1  0  0  0  0
 33 67  1  0  0  0  0
 34 37  1  0  0  0  0
 34 38  2  0  0  0  0
 35 37  1  0  0  0  0
 35 68  1  0  0  0  0
 35 69  1  0  0  0  0
 35 70  1  0  0  0  0
M  END
$$$$
