QN1
 OpenBabel04051919053D

 85 89  0  0  1  0  0  0  0  0999 V2000
    5.4704  -14.7980  -15.7163 N   0  0  0  0  0  0  0  0  0  0  0  0
    6.7073  -14.4851  -15.2146 C   0  0  0  0  0  0  0  0  0  0  0  0
    7.6970  -15.5833  -15.1535 C   0  0  0  0  0  0  0  0  0  0  0  0
    8.9205  -15.3418  -14.5210 C   0  0  0  0  0  0  0  0  0  0  0  0
    9.8738  -16.3532  -14.4354 C   0  0  0  0  0  0  0  0  0  0  0  0
    9.5812  -17.6127  -14.9777 C   0  0  0  0  0  0  0  0  0  0  0  0
    8.3661  -17.8721  -15.6160 C   0  0  0  0  0  0  0  0  0  0  0  0
    7.4327  -16.8529  -15.7079 C   0  0  0  0  0  0  0  0  0  0  0  0
   10.7144  -18.9286  -14.7794 S   0  0  0  0  0  0  0  0  0  0  0  0
   11.0648  -18.9543  -13.3859 O   0  0  0  0  0  0  0  0  0  0  0  0
   10.1194  -20.0898  -15.4333 O   0  0  0  0  0  0  0  0  0  0  0  0
   12.0904  -18.5050  -15.6590 N   0  0  0  0  0  0  0  0  0  0  0  0
   13.3596  -18.2876  -14.9149 C   0  0  0  0  0  0  0  0  0  0  0  0
   14.1784  -19.5438  -14.6720 C   0  0  0  0  0  0  0  0  0  0  0  0
   15.5198  -19.6168  -15.0688 C   0  0  0  0  0  0  0  0  0  0  0  0
   16.2807  -20.7679  -14.8596 C   0  0  0  0  0  0  0  0  0  0  0  0
   15.7119  -21.8917  -14.2407 C   0  0  0  0  0  0  0  0  0  0  0  0
   16.5572  -23.0965  -13.9595 C   0  0  0  0  0  0  0  0  0  0  0  0
   16.0820  -24.2479  -14.5170 F   0  0  0  0  0  0  0  0  0  0  0  0
   17.8255  -22.9574  -14.4446 F   0  0  0  0  0  0  0  0  0  0  0  0
   16.6893  -23.3280  -12.6305 F   0  0  0  0  0  0  0  0  0  0  0  0
   14.3728  -21.8326  -13.8353 C   0  0  0  0  0  0  0  0  0  0  0  0
   13.6192  -20.6769  -14.0589 C   0  0  0  0  0  0  0  0  0  0  0  0
   12.0396  -18.7171  -17.1249 C   0  0  1  0  0  0  0  0  0  0  0  0
   12.7529  -17.6053  -17.8825 C   0  0  0  0  0  0  0  0  0  0  0  0
   14.1125  -18.1606  -18.2026 N   0  3  0  0  0  0  0  0  0  0  0  0
   14.0380  -19.6518  -18.2134 C   0  0  0  0  0  0  0  0  0  0  0  0
   12.7266  -20.0259  -17.5435 C   0  0  2  0  0  0  0  0  0  0  0  0
   11.8764  -20.8450  -18.4081 N   0  0  0  0  0  0  0  0  0  0  0  0
   11.4755  -20.4233  -19.7509 C   0  0  0  0  0  0  0  0  0  0  0  0
   10.2131  -19.6176  -19.8214 C   0  0  0  0  0  0  0  0  0  0  0  0
   10.1353  -18.6449  -20.8186 C   0  0  0  0  0  0  0  0  0  0  0  0
    8.9817  -17.9110  -21.0022 C   0  0  0  0  0  0  0  0  0  0  0  0
    7.8819  -18.1094  -20.1693 C   0  0  0  0  0  0  0  0  0  0  0  0
    6.6819  -17.2685  -20.4412 C   0  0  0  0  0  0  0  0  0  0  0  0
    7.0284  -16.0183  -20.8649 F   0  0  0  0  0  0  0  0  0  0  0  0
    5.9284  -17.8028  -21.4321 F   0  0  0  0  0  0  0  0  0  0  0  0
    5.8874  -17.0788  -19.3567 F   0  0  0  0  0  0  0  0  0  0  0  0
    7.9417  -19.0833  -19.1729 C   0  0  0  0  0  0  0  0  0  0  0  0
    9.1029  -19.8325  -18.9919 C   0  0  0  0  0  0  0  0  0  0  0  0
   11.7457  -22.4940  -18.0813 S   0  0  0  0  0  0  0  0  0  0  0  0
   13.2478  -23.1458  -18.7141 C   0  0  0  0  0  0  0  0  0  0  0  0
   13.3401  -23.4147  -20.0941 C   0  0  0  0  0  0  0  0  0  0  0  0
   14.5090  -23.9475  -20.6204 C   0  0  0  0  0  0  0  0  0  0  0  0
   15.5877  -24.2433  -19.7743 C   0  0  0  0  0  0  0  0  0  0  0  0
   16.8595  -24.7916  -20.3765 C   0  0  0  0  0  0  0  0  0  0  0  0
   17.1363  -24.4601  -21.5215 O   0  0  0  0  0  0  0  0  0  0  0  0
   17.6520  -25.5828  -19.6649 N   0  0  0  0  0  0  0  0  0  0  0  0
   15.4822  -23.9525  -18.3974 C   0  0  0  0  0  0  0  0  0  0  0  0
   14.3137  -23.4145  -17.8538 C   0  0  0  0  0  0  0  0  0  0  0  0
   10.6591  -22.9793  -18.8871 O   0  0  0  0  0  0  0  0  0  0  0  0
   11.7498  -22.6577  -16.6408 O   0  0  0  0  0  0  0  0  0  0  0  0
    6.9725  -13.3536  -14.8435 O   0  0  0  0  0  0  0  0  0  0  0  0
    4.7555  -14.0826  -15.7662 H   0  0  0  0  0  0  0  0  0  0  0  0
    5.2230  -15.7210  -16.0164 H   0  0  0  0  0  0  0  0  0  0  0  0
    9.1205  -14.3630  -14.0771 H   0  0  0  0  0  0  0  0  0  0  0  0
   10.8369  -16.1637  -13.9737 H   0  0  0  0  0  0  0  0  0  0  0  0
    8.1638  -18.8495  -16.0529 H   0  0  0  0  0  0  0  0  0  0  0  0
    6.4956  -17.0589  -16.2051 H   0  0  0  0  0  0  0  0  0  0  0  0
   13.1371  -17.7838  -13.9651 H   0  0  0  0  0  0  0  0  0  0  0  0
   13.9766  -17.5589  -15.4718 H   0  0  0  0  0  0  0  0  0  0  0  0
   15.9851  -18.7707  -15.5672 H   0  0  0  0  0  0  0  0  0  0  0  0
   17.3368  -20.7832  -15.1346 H   0  0  0  0  0  0  0  0  0  0  0  0
   13.9193  -22.6856  -13.3209 H   0  0  0  0  0  0  0  0  0  0  0  0
   12.5713  -20.6909  -13.7636 H   0  0  0  0  0  0  0  0  0  0  0  0
   10.9826  -18.6877  -17.4036 H   0  0  0  0  0  0  0  0  0  0  0  0
   12.8877  -16.6920  -17.2964 H   0  0  0  0  0  0  0  0  0  0  0  0
   12.2681  -17.3649  -18.8322 H   0  0  0  0  0  0  0  0  0  0  0  0
   14.4580  -17.8124  -19.1126 H   0  0  0  0  0  0  0  0  0  0  0  0
   14.9088  -20.0432  -17.6863 H   0  0  0  0  0  0  0  0  0  0  0  0
   14.0886  -19.9692  -19.2564 H   0  0  0  0  0  0  0  0  0  0  0  0
   12.9429  -20.6106  -16.6551 H   0  0  0  0  0  0  0  0  0  0  0  0
   11.3423  -21.2952  -20.3925 H   0  0  0  0  0  0  0  0  0  0  0  0
   12.2598  -19.8089  -20.2006 H   0  0  0  0  0  0  0  0  0  0  0  0
   10.9953  -18.4408  -21.4552 H   0  0  0  0  0  0  0  0  0  0  0  0
    8.9262  -17.1713  -21.8010 H   0  0  0  0  0  0  0  0  0  0  0  0
    7.0778  -19.2643  -18.5292 H   0  0  0  0  0  0  0  0  0  0  0  0
    9.1527  -20.5630  -18.1812 H   0  0  0  0  0  0  0  0  0  0  0  0
   12.4889  -23.2147  -20.7455 H   0  0  0  0  0  0  0  0  0  0  0  0
   14.5964  -24.1414  -21.6971 H   0  0  0  0  0  0  0  0  0  0  0  0
   18.4959  -25.9349  -20.1285 H   0  0  0  0  0  0  0  0  0  0  0  0
   17.4450  -25.8892  -18.7450 H   0  0  0  0  0  0  0  0  0  0  0  0
   16.3454  -24.1366  -17.7599 H   0  0  0  0  0  0  0  0  0  0  0  0
   14.2284  -23.2254  -16.7810 H   0  0  0  0  0  0  0  0  0  0  0  0
   14.7975  -17.8631  -17.4939 H   0  0  0  0  0  0  0  0  0  0  0  0
  1  2  1  0  0  0  0
  1 54  1  0  0  0  0
  1 55  1  0  0  0  0
  2  3  1  0  0  0  0
  2 53  2  0  0  0  0
  3  4  2  0  0  0  0
  3  8  1  0  0  0  0
  4  5  1  0  0  0  0
  4 56  1  0  0  0  0
  5  6  2  0  0  0  0
  5 57  1  0  0  0  0
  6  7  1  0  0  0  0
  6  9  1  0  0  0  0
  7  8  2  0  0  0  0
  7 58  1  0  0  0  0
  8 59  1  0  0  0  0
  9 10  2  0  0  0  0
  9 11  2  0  0  0  0
  9 12  1  0  0  0  0
 12 13  1  0  0  0  0
 12 24  1  0  0  0  0
 13 14  1  0  0  0  0
 13 60  1  0  0  0  0
 13 61  1  0  0  0  0
 14 15  2  0  0  0  0
 14 23  1  0  0  0  0
 15 16  1  0  0  0  0
 15 62  1  0  0  0  0
 16 17  2  0  0  0  0
 16 63  1  0  0  0  0
 17 18  1  0  0  0  0
 17 22  1  0  0  0  0
 18 19  1  0  0  0  0
 18 20  1  0  0  0  0
 18 21  1  0  0  0  0
 22 23  2  0  0  0  0
 22 64  1  0  0  0  0
 23 65  1  0  0  0  0
 24 25  1  0  0  0  0
 24 28  1  0  0  0  0
 24 66  1  6  0  0  0
 25 26  1  0  0  0  0
 25 67  1  0  0  0  0
 25 68  1  0  0  0  0
 26 27  1  0  0  0  0
 26 69  1  0  0  0  0
 26 85  1  0  0  0  0
 27 28  1  0  0  0  0
 27 70  1  0  0  0  0
 27 71  1  0  0  0  0
 28 29  1  0  0  0  0
 28 72  1  1  0  0  0
 29 30  1  0  0  0  0
 29 41  1  0  0  0  0
 30 31  1  0  0  0  0
 30 73  1  0  0  0  0
 30 74  1  0  0  0  0
 31 32  2  0  0  0  0
 31 40  1  0  0  0  0
 32 33  1  0  0  0  0
 32 75  1  0  0  0  0
 33 34  2  0  0  0  0
 33 76  1  0  0  0  0
 34 35  1  0  0  0  0
 34 39  1  0  0  0  0
 35 36  1  0  0  0  0
 35 37  1  0  0  0  0
 35 38  1  0  0  0  0
 39 40  2  0  0  0  0
 39 77  1  0  0  0  0
 40 78  1  0  0  0  0
 41 42  1  0  0  0  0
 41 51  2  0  0  0  0
 41 52  2  0  0  0  0
 42 43  2  0  0  0  0
 42 50  1  0  0  0  0
 43 44  1  0  0  0  0
 43 79  1  0  0  0  0
 44 45  2  0  0  0  0
 44 80  1  0  0  0  0
 45 46  1  0  0  0  0
 45 49  1  0  0  0  0
 46 47  2  0  0  0  0
 46 48  1  0  0  0  0
 48 81  1  0  0  0  0
 48 82  1  0  0  0  0
 49 50  2  0  0  0  0
 49 83  1  0  0  0  0
 50 84  1  0  0  0  0
M  CHG  1  26   1
M  END
$$$$
