QN2
 OpenBabel04051919053D

 71 75  0  0  1  0  0  0  0  0999 V2000
   15.2898   19.2009   -1.7678 C   0  0  0  0  0  0  0  0  0  0  0  0
   16.3405   19.6824   -2.5397 C   0  0  0  0  0  0  0  0  0  0  0  0
   16.1279   19.9904   -3.8877 C   0  0  0  0  0  0  0  0  0  0  0  0
   14.8934   19.7456   -4.4959 C   0  0  0  0  0  0  0  0  0  0  0  0
   13.8556   19.2265   -3.7231 C   0  0  0  0  0  0  0  0  0  0  0  0
   14.0500   18.9685   -2.3633 C   0  0  0  0  0  0  0  0  0  0  0  0
   17.4763   20.6417   -4.8447 S   0  0  0  0  0  0  0  0  0  0  0  0
   17.3243   22.3205   -4.5852 N   0  0  0  0  0  0  0  0  0  0  0  0
   17.6788   22.8591   -3.2659 C   0  0  0  0  0  0  0  0  0  0  0  0
   19.0252   23.5224   -3.1866 C   0  0  0  0  0  0  0  0  0  0  0  0
   19.2383   24.4443   -2.1518 C   0  0  0  0  0  0  0  0  0  0  0  0
   20.4858   25.0349   -1.9709 C   0  0  0  0  0  0  0  0  0  0  0  0
   21.5281   24.7240   -2.8405 C   0  0  0  0  0  0  0  0  0  0  0  0
   23.3925   25.5827   -2.5515 I   0  0  0  0  0  0  0  0  0  0  0  0
   21.3274   23.8293   -3.8905 C   0  0  0  0  0  0  0  0  0  0  0  0
   20.0844   23.2198   -4.0521 C   0  0  0  0  0  0  0  0  0  0  0  0
   16.4050   23.0759   -5.4658 C   0  0  2  0  0  0  0  0  0  0  0  0
   17.0026   24.4458   -5.8630 C   0  0  1  0  0  0  0  0  0  0  0  0
   16.9755   24.7069   -7.3398 N   0  0  0  0  0  0  0  0  0  0  0  0
   18.4123   24.3602   -8.2269 S   0  0  0  0  0  0  0  0  0  0  0  0
   19.1049   23.3438   -7.4619 O   0  0  0  0  0  0  0  0  0  0  0  0
   19.4034   25.8427   -8.1744 C   0  0  0  0  0  0  0  0  0  0  0  0
   20.7317   25.7307   -7.7460 C   0  0  0  0  0  0  0  0  0  0  0  0
   21.5840   26.8339   -7.8038 C   0  0  0  0  0  0  0  0  0  0  0  0
   21.1130   28.0552   -8.2824 C   0  0  0  0  0  0  0  0  0  0  0  0
   19.7956   28.1653   -8.7341 C   0  0  0  0  0  0  0  0  0  0  0  0
   18.9405   27.0535   -8.7046 C   0  0  0  0  0  0  0  0  0  0  0  0
   18.0684   24.1792   -9.6147 O   0  0  0  0  0  0  0  0  0  0  0  0
   15.7105   24.8051   -8.1029 C   0  0  0  0  0  0  0  0  0  0  0  0
   14.9241   23.5237   -8.3327 C   0  0  0  0  0  0  0  0  0  0  0  0
   13.5847   23.4068   -7.9160 C   0  0  0  0  0  0  0  0  0  0  0  0
   12.8503   22.2315   -8.1425 C   0  0  0  0  0  0  0  0  0  0  0  0
   13.4402   21.1622   -8.8113 C   0  0  0  0  0  0  0  0  0  0  0  0
   12.3716   19.4208   -9.1752 I   0  0  0  0  0  0  0  0  0  0  0  0
   14.7552   21.2597   -9.2454 C   0  0  0  0  0  0  0  0  0  0  0  0
   15.4837   22.4318   -9.0150 C   0  0  0  0  0  0  0  0  0  0  0  0
   16.2139   25.4542   -5.0264 C   0  0  0  0  0  0  0  0  0  0  0  0
   14.8598   24.8396   -4.8240 N   0  3  0  0  0  0  0  0  0  0  0  0
   15.0446   23.3495   -4.8014 C   0  0  0  0  0  0  0  0  0  0  0  0
   18.6941   20.2133   -4.2102 O   0  0  0  0  0  0  0  0  0  0  0  0
   17.1913   20.3815   -6.2257 O   0  0  0  0  0  0  0  0  0  0  0  0
   15.4390   18.9916   -0.7101 H   0  0  0  0  0  0  0  0  0  0  0  0
   17.3241   19.8067   -2.0877 H   0  0  0  0  0  0  0  0  0  0  0  0
   14.7415   19.9269   -5.5584 H   0  0  0  0  0  0  0  0  0  0  0  0
   12.8933   19.0006   -4.1775 H   0  0  0  0  0  0  0  0  0  0  0  0
   13.2376   18.5558   -1.7674 H   0  0  0  0  0  0  0  0  0  0  0  0
   17.5995   22.1089   -2.4779 H   0  0  0  0  0  0  0  0  0  0  0  0
   16.9425   23.6230   -2.9936 H   0  0  0  0  0  0  0  0  0  0  0  0
   18.4369   24.6916   -1.4587 H   0  0  0  0  0  0  0  0  0  0  0  0
   20.6354   25.7189   -1.1394 H   0  0  0  0  0  0  0  0  0  0  0  0
   22.1352   23.5812   -4.5756 H   0  0  0  0  0  0  0  0  0  0  0  0
   19.9665   22.4947   -4.8627 H   0  0  0  0  0  0  0  0  0  0  0  0
   16.2372   22.4838   -6.3625 H   0  0  0  0  0  0  0  0  0  0  0  0
   18.0466   24.5439   -5.5517 H   0  0  0  0  0  0  0  0  0  0  0  0
   21.1289   24.7759   -7.4062 H   0  0  0  0  0  0  0  0  0  0  0  0
   22.6215   26.7345   -7.4904 H   0  0  0  0  0  0  0  0  0  0  0  0
   21.7831   28.9133   -8.3198 H   0  0  0  0  0  0  0  0  0  0  0  0
   19.4525   29.1207   -9.1311 H   0  0  0  0  0  0  0  0  0  0  0  0
   17.9474   27.1427   -9.1346 H   0  0  0  0  0  0  0  0  0  0  0  0
   15.8899   25.2993   -9.0620 H   0  0  0  0  0  0  0  0  0  0  0  0
   15.0701   25.5093   -7.5597 H   0  0  0  0  0  0  0  0  0  0  0  0
   13.0782   24.2278   -7.4173 H   0  0  0  0  0  0  0  0  0  0  0  0
   11.8159   22.1662   -7.8096 H   0  0  0  0  0  0  0  0  0  0  0  0
   15.2348   20.4346   -9.7700 H   0  0  0  0  0  0  0  0  0  0  0  0
   16.5021   22.4542   -9.3930 H   0  0  0  0  0  0  0  0  0  0  0  0
   16.0889   26.4385   -5.4801 H   0  0  0  0  0  0  0  0  0  0  0  0
   16.6410   25.5677   -4.0236 H   0  0  0  0  0  0  0  0  0  0  0  0
   14.4035   25.1785   -3.9642 H   0  0  0  0  0  0  0  0  0  0  0  0
   14.9876   23.0390   -3.7537 H   0  0  0  0  0  0  0  0  0  0  0  0
   14.2017   22.9010   -5.3306 H   0  0  0  0  0  0  0  0  0  0  0  0
   14.2373   25.1037   -5.5966 H   0  0  0  0  0  0  0  0  0  0  0  0
  1  2  2  0  0  0  0
  1  6  1  0  0  0  0
  1 42  1  0  0  0  0
  2  3  1  0  0  0  0
  2 43  1  0  0  0  0
  3  4  2  0  0  0  0
  3  7  1  0  0  0  0
  4  5  1  0  0  0  0
  4 44  1  0  0  0  0
  5  6  2  0  0  0  0
  5 45  1  0  0  0  0
  6 46  1  0  0  0  0
  7  8  1  0  0  0  0
  7 40  2  0  0  0  0
  7 41  2  0  0  0  0
  8  9  1  0  0  0  0
  8 17  1  0  0  0  0
  9 10  1  0  0  0  0
  9 47  1  0  0  0  0
  9 48  1  0  0  0  0
 10 11  2  0  0  0  0
 10 16  1  0  0  0  0
 11 12  1  0  0  0  0
 11 49  1  0  0  0  0
 12 13  2  0  0  0  0
 12 50  1  0  0  0  0
 13 14  1  0  0  0  0
 13 15  1  0  0  0  0
 15 16  2  0  0  0  0
 15 51  1  0  0  0  0
 16 52  1  0  0  0  0
 17 18  1  0  0  0  0
 17 39  1  0  0  0  0
 17 53  1  6  0  0  0
 18 19  1  0  0  0  0
 18 37  1  0  0  0  0
 18 54  1  1  0  0  0
 19 20  1  0  0  0  0
 19 29  1  0  0  0  0
 20 21  2  0  0  0  0
 20 22  1  0  0  0  0
 20 28  2  0  0  0  0
 22 23  2  0  0  0  0
 22 27  1  0  0  0  0
 23 24  1  0  0  0  0
 23 55  1  0  0  0  0
 24 25  2  0  0  0  0
 24 56  1  0  0  0  0
 25 26  1  0  0  0  0
 25 57  1  0  0  0  0
 26 27  2  0  0  0  0
 26 58  1  0  0  0  0
 27 59  1  0  0  0  0
 29 30  1  0  0  0  0
 29 60  1  0  0  0  0
 29 61  1  0  0  0  0
 30 31  2  0  0  0  0
 30 36  1  0  0  0  0
 31 32  1  0  0  0  0
 31 62  1  0  0  0  0
 32 33  2  0  0  0  0
 32 63  1  0  0  0  0
 33 34  1  0  0  0  0
 33 35  1  0  0  0  0
 35 36  2  0  0  0  0
 35 64  1  0  0  0  0
 36 65  1  0  0  0  0
 37 38  1  0  0  0  0
 37 66  1  0  0  0  0
 37 67  1  0  0  0  0
 38 39  1  0  0  0  0
 38 68  1  0  0  0  0
 38 71  1  0  0  0  0
 39 69  1  0  0  0  0
 39 70  1  0  0  0  0
M  CHG  1  38   1
M  END
$$$$
