REF
 OpenBabel04051920533D

 28 31  0  0  0  0  0  0  0  0999 V2000
   36.2943   -4.0914   11.3575 C   0  0  0  0  0  0  0  0  0  0  0  0
   36.7560   -3.9939   10.0651 C   0  0  0  0  0  0  0  0  0  0  0  0
   37.0404   -5.1605    9.3585 C   0  0  0  0  0  0  0  0  0  0  0  0
   36.8718   -6.3923    9.9392 C   0  0  0  0  0  0  0  0  0  0  0  0
   36.3994   -6.5218   11.2411 O   0  3  0  0  0  0  0  0  0  0  0  0
   36.0975   -5.3992   11.9719 C   0  0  0  0  0  0  0  0  0  0  0  0
   37.5004   -5.0589    8.0655 C   0  0  0  0  0  0  0  0  0  0  0  0
   37.8045   -6.1867    7.3346 C   0  0  0  0  0  0  0  0  0  0  0  0
   37.6420   -7.4116    7.9265 C   0  0  0  0  0  0  0  0  0  0  0  0
   37.1777   -7.5181    9.2210 C   0  0  0  0  0  0  0  0  0  0  0  0
   36.9413   -2.7580    9.4749 C   0  0  0  0  0  0  0  0  0  0  0  0
   37.3947   -2.6334    8.1696 O   0  3  0  0  0  0  0  0  0  0  0  0
   37.6744   -3.7575    7.4609 C   0  0  0  0  0  0  0  0  0  0  0  0
   36.0193   -2.9464   12.0680 C   0  0  0  0  0  0  0  0  0  0  0  0
   36.2259   -1.7196   11.4580 C   0  0  0  0  0  0  0  0  0  0  0  0
   36.6875   -1.6041   10.1617 C   0  0  0  0  0  0  0  0  0  0  0  0
   37.0551   -8.7739    9.7151 O   0  0  0  0  0  0  0  0  0  0  0  0
   37.9358   -8.5647    7.2606 O   0  0  0  0  0  0  0  0  0  0  0  0
   38.0861   -3.6712    6.2918 O   0  0  0  0  0  0  0  0  0  0  0  0
   36.8867   -0.3733    9.6113 O   0  0  0  0  0  0  0  0  0  0  0  0
   35.9809   -0.5941   12.1886 O   0  0  0  0  0  0  0  0  0  0  0  0
   35.6691   -5.4971   13.1191 O   0  0  0  0  0  0  0  0  0  0  0  0
   38.1637   -6.0859    6.3201 H   0  0  0  0  0  0  0  0  0  0  0  0
   35.6469   -3.0237   13.0831 H   0  0  0  0  0  0  0  0  0  0  0  0
   36.7251   -8.7148   10.6207 H   0  0  0  0  0  0  0  0  0  0  0  0
   38.2492   -8.3538    6.3697 H   0  0  0  0  0  0  0  0  0  0  0  0
   37.2165   -0.4731    8.6964 H   0  0  0  0  0  0  0  0  0  0  0  0
   35.3188   -0.0674   11.7007 H   0  0  0  0  0  0  0  0  0  0  0  0
  1  2  1  0  0  0  0
  1  6  1  0  0  0  0
  1 14  2  0  0  0  0
  2  3  2  0  0  0  0
  2 11  1  0  0  0  0
  3  4  1  0  0  0  0
  3  7  1  0  0  0  0
  4  5  2  0  0  0  0
  4 10  1  0  0  0  0
  5  6  1  0  0  0  0
  6 22  2  0  0  0  0
  7  8  2  0  0  0  0
  7 13  1  0  0  0  0
  8  9  1  0  0  0  0
  8 23  1  0  0  0  0
  9 10  2  0  0  0  0
  9 18  1  0  0  0  0
 10 17  1  0  0  0  0
 11 12  2  0  0  0  0
 11 16  1  0  0  0  0
 12 13  1  0  0  0  0
 13 19  2  0  0  0  0
 14 15  1  0  0  0  0
 14 24  1  0  0  0  0
 15 16  2  0  0  0  0
 15 21  1  0  0  0  0
 16 20  1  0  0  0  0
 17 25  1  0  0  0  0
 18 26  1  0  0  0  0
 20 27  1  0  0  0  0
 21 28  1  0  0  0  0
M  CHG  2   5   1  12   1
M  END
$$$$
