RES
 OpenBabel04051917253D

 22 21  0  0  1  0  0  0  0  0999 V2000
   30.5175  -11.4318   16.4609 O   0  0  0  0  0  0  0  0  0  0  0  0
   29.2527  -12.2466   16.2238 P   0  0  0  0  0  0  0  0  0  0  0  0
   28.8556  -13.1731   17.3567 O   0  0  0  0  0  0  0  0  0  0  0  0
   29.1558  -12.8487   14.8299 O   0  0  0  0  0  0  0  0  0  0  0  0
   28.0723  -11.1124   16.2514 O   0  0  0  0  0  0  0  0  0  0  0  0
   28.0607  -10.1403   15.2369 C   0  0  0  0  0  0  0  0  0  0  0  0
   26.6728   -9.5016   15.2245 C   0  0  1  0  0  0  0  0  0  0  0  0
   26.4115   -8.7617   16.4427 O   0  0  0  0  0  0  0  0  0  0  0  0
   26.4834   -8.5273   14.0574 C   0  0  1  0  0  0  0  0  0  0  0  0
   26.8224   -9.0499   12.7856 O   0  0  0  0  0  0  0  0  0  0  0  0
   25.0299   -8.1114   14.0756 C   0  0  0  0  0  0  0  0  0  0  0  0
   24.0809   -8.8928   13.9591 O   0  0  0  0  0  0  0  0  0  0  0  0
   24.7939   -6.7548   14.1848 N   0  0  0  0  0  0  0  0  0  0  0  0
   23.4711   -6.2856   14.1470 O   0  0  0  0  0  0  0  0  0  0  0  0
   28.2784  -10.5933   14.2659 H   0  0  0  0  0  0  0  0  0  0  0  0
   28.8208   -9.3694   15.4493 H   0  0  0  0  0  0  0  0  0  0  0  0
   25.9219  -10.2955   15.1509 H   0  0  0  0  0  0  0  0  0  0  0  0
   27.1642   -8.1515   16.5690 H   0  0  0  0  0  0  0  0  0  0  0  0
   27.1254   -7.6254   14.2176 H   0  0  0  0  0  0  0  0  0  0  0  0
   27.7371   -9.4000   12.8345 H   0  0  0  0  0  0  0  0  0  0  0  0
   25.5436   -6.0752   14.2092 H   0  0  0  0  0  0  0  0  0  0  0  0
   23.0586   -6.7860   14.8870 H   0  0  0  0  0  0  0  0  0  0  0  0
  1  2  2  0  0  0  0
  2  3  1  0  0  0  0
  2  4  1  0  0  0  0
  2  5  1  0  0  0  0
  5  6  1  0  0  0  0
  6  7  1  0  0  0  0
  6 15  1  0  0  0  0
  6 16  1  0  0  0  0
  7  8  1  0  0  0  0
  7  9  1  0  0  0  0
  7 17  1  6  0  0  0
  8 18  1  0  0  0  0
  9 10  1  0  0  0  0
  9 11  1  0  0  0  0
  9 19  1  1  0  0  0
 10 20  1  0  0  0  0
 11 12  2  0  0  0  0
 11 13  1  0  0  0  0
 13 14  1  0  0  0  0
 13 21  1  0  0  0  0
 14 22  1  0  0  0  0
M  END
$$$$
