ROC
 OpenBabel04051918293D

100104  0  0  1  0  0  0  0  0999 V2000
   18.9004   35.2466   19.1176 O   0  0  0  0  0  0  0  0  0  0  0  0
   19.3880   35.6984   18.1153 C   0  0  0  0  0  0  0  0  0  0  0  0
   20.5335   37.4861   16.8196 N   0  0  0  0  0  0  0  0  0  0  0  0
   20.3716   36.8999   18.0383 C   0  0  0  0  0  0  0  0  0  0  0  0
   21.0609   37.3111   19.1723 C   0  0  0  0  0  0  0  0  0  0  0  0
   21.9766   38.3570   19.0399 C   0  0  0  0  0  0  0  0  0  0  0  0
   22.0660   39.0596   17.8437 C   0  0  0  0  0  0  0  0  0  0  0  0
   22.8757   40.2048   17.7532 C   0  0  0  0  0  0  0  0  0  0  0  0
   22.8749   40.9437   16.5894 C   0  0  0  0  0  0  0  0  0  0  0  0
   22.2270   40.4314   15.4715 C   0  0  0  0  0  0  0  0  0  0  0  0
   21.5535   39.2040   15.5239 C   0  0  0  0  0  0  0  0  0  0  0  0
   21.3392   38.5694   16.7315 C   0  0  0  0  0  0  0  0  0  0  0  0
   19.1255   35.1415   16.8671 N   0  0  0  0  0  0  0  0  0  0  0  0
   18.3458   33.9502   16.7387 C   0  0  2  0  0  0  0  0  0  0  0  0
   19.1094   33.0365   15.8268 C   0  0  0  0  0  0  0  0  0  0  0  0
   19.1082   33.1163   14.6131 O   0  0  0  0  0  0  0  0  0  0  0  0
   16.9795   34.1798   16.1438 C   0  0  0  0  0  0  0  0  0  0  0  0
   16.2039   35.0904   17.0751 C   0  0  0  0  0  0  0  0  0  0  0  0
   15.9653   36.2266   16.8630 O   0  0  0  0  0  0  0  0  0  0  0  0
   15.8143   34.4812   18.2044 N   0  0  0  0  0  0  0  0  0  0  0  0
   20.1302   29.7279   16.0966 C   0  0  1  0  0  0  0  0  0  0  0  0
   20.3904   29.4161   17.4619 O   0  0  0  0  0  0  0  0  0  0  0  0
   20.6817   31.1156   15.7344 C   0  0  1  0  0  0  0  0  0  0  0  0
   19.8683   32.0733   16.4712 N   0  0  0  0  0  0  0  0  0  0  0  0
   22.1550   31.2918   16.0800 C   0  0  0  0  0  0  0  0  0  0  0  0
   22.6052   32.7195   16.1120 C   0  0  0  0  0  0  0  0  0  0  0  0
   22.8362   33.3956   14.9174 C   0  0  0  0  0  0  0  0  0  0  0  0
   22.7802   33.3860   17.3276 C   0  0  0  0  0  0  0  0  0  0  0  0
   23.2966   34.7042   14.9442 C   0  0  0  0  0  0  0  0  0  0  0  0
   23.1784   34.7172   17.3396 C   0  0  0  0  0  0  0  0  0  0  0  0
   23.4759   35.3649   16.1517 C   0  0  0  0  0  0  0  0  0  0  0  0
   19.8060   28.5951   13.9379 N   0  3  1  0  0  0  0  0  0  0  0  0
   20.6130   28.6012   15.1976 C   0  0  0  0  0  0  0  0  0  0  0  0
   20.5427   28.0054   12.7650 C   0  0  2  0  0  0  0  0  0  0  0  0
   21.7768   28.7427   12.3985 C   0  0  0  0  0  0  0  0  0  0  0  0
   21.7235   29.9588   12.2152 O   0  0  0  0  0  0  0  0  0  0  0  0
   19.6919   28.1432   11.5297 C   0  0  0  0  0  0  0  0  0  0  0  0
   18.3643   27.4256   11.6934 C   0  0  2  0  0  0  0  0  0  0  0  0
   17.4959   27.6645   10.4570 C   0  0  0  0  0  0  0  0  0  0  0  0
   17.0718   29.1287   10.3263 C   0  0  0  0  0  0  0  0  0  0  0  0
   16.2019   29.4201   11.5370 C   0  0  0  0  0  0  0  0  0  0  0  0
   17.1092   29.3358   12.7550 C   0  0  0  0  0  0  0  0  0  0  0  0
   17.6512   27.9170   12.9541 C   0  0  2  0  0  0  0  0  0  0  0  0
   18.5473   27.8257   14.1616 C   0  0  0  0  0  0  0  0  0  0  0  0
   22.8317   27.8964   12.2702 N   0  0  0  0  0  0  0  0  0  0  0  0
   24.1565   28.3132   11.8451 C   0  0  0  0  0  0  0  0  0  0  0  0
   25.0078   27.0375   11.7438 C   0  0  0  0  0  0  0  0  0  0  0  0
   24.5420   29.4114   12.7974 C   0  0  0  0  0  0  0  0  0  0  0  0
   24.1296   29.0678   10.5372 C   0  0  0  0  0  0  0  0  0  0  0  0
   20.8773   36.8608   20.1311 H   0  0  0  0  0  0  0  0  0  0  0  0
   22.6278   38.6133   19.8775 H   0  0  0  0  0  0  0  0  0  0  0  0
   23.4925   40.5259   18.5922 H   0  0  0  0  0  0  0  0  0  0  0  0
   23.3885   41.8991   16.5212 H   0  0  0  0  0  0  0  0  0  0  0  0
   22.2365   40.9968   14.5472 H   0  0  0  0  0  0  0  0  0  0  0  0
   21.2005   38.7760   14.5849 H   0  0  0  0  0  0  0  0  0  0  0  0
   19.4668   35.6555   16.0641 H   0  0  0  0  0  0  0  0  0  0  0  0
   18.2134   33.4692   17.7119 H   0  0  0  0  0  0  0  0  0  0  0  0
   16.4413   33.2232   16.0633 H   0  0  0  0  0  0  0  0  0  0  0  0
   17.0201   34.6578   15.1697 H   0  0  0  0  0  0  0  0  0  0  0  0
   15.3321   35.0697   18.8617 H   0  0  0  0  0  0  0  0  0  0  0  0
   16.0463   33.5270   18.3724 H   0  0  0  0  0  0  0  0  0  0  0  0
   19.0441   29.7913   16.0018 H   0  0  0  0  0  0  0  0  0  0  0  0
   20.0242   28.5388   17.6742 H   0  0  0  0  0  0  0  0  0  0  0  0
   20.5517   31.2660   14.6562 H   0  0  0  0  0  0  0  0  0  0  0  0
   19.9267   32.0737   17.4843 H   0  0  0  0  0  0  0  0  0  0  0  0
   22.7616   30.7767   15.3312 H   0  0  0  0  0  0  0  0  0  0  0  0
   22.3527   30.8507   17.0577 H   0  0  0  0  0  0  0  0  0  0  0  0
   22.6783   32.9069   13.9641 H   0  0  0  0  0  0  0  0  0  0  0  0
   22.6173   32.8770   18.2745 H   0  0  0  0  0  0  0  0  0  0  0  0
   23.5113   35.2150   14.0152 H   0  0  0  0  0  0  0  0  0  0  0  0
   23.2609   35.2524   18.2794 H   0  0  0  0  0  0  0  0  0  0  0  0
   23.8444   36.3878   16.1592 H   0  0  0  0  0  0  0  0  0  0  0  0
   20.4404   27.6277   15.6659 H   0  0  0  0  0  0  0  0  0  0  0  0
   21.6664   28.6982   14.9423 H   0  0  0  0  0  0  0  0  0  0  0  0
   20.7424   26.9634   13.0155 H   0  0  0  0  0  0  0  0  0  0  0  0
   20.2505   27.7483   10.6758 H   0  0  0  0  0  0  0  0  0  0  0  0
   19.5344   29.2145   11.3366 H   0  0  0  0  0  0  0  0  0  0  0  0
   18.5716   26.3507   11.7957 H   0  0  0  0  0  0  0  0  0  0  0  0
   16.5936   27.0471   10.5559 H   0  0  0  0  0  0  0  0  0  0  0  0
   18.0352   27.3464    9.5644 H   0  0  0  0  0  0  0  0  0  0  0  0
   16.5279   29.3092    9.3976 H   0  0  0  0  0  0  0  0  0  0  0  0
   17.9411   29.8024   10.3156 H   0  0  0  0  0  0  0  0  0  0  0  0
   15.3985   28.6742   11.6136 H   0  0  0  0  0  0  0  0  0  0  0  0
   15.7443   30.4104   11.4806 H   0  0  0  0  0  0  0  0  0  0  0  0
   16.5554   29.6478   13.6416 H   0  0  0  0  0  0  0  0  0  0  0  0
   17.9385   30.0302   12.5943 H   0  0  0  0  0  0  0  0  0  0  0  0
   16.8033   27.2617   13.1672 H   0  0  0  0  0  0  0  0  0  0  0  0
   18.0708   28.2287   15.0534 H   0  0  0  0  0  0  0  0  0  0  0  0
   18.8518   26.7920   14.3441 H   0  0  0  0  0  0  0  0  0  0  0  0
   22.7251   26.9119   12.4846 H   0  0  0  0  0  0  0  0  0  0  0  0
   26.0393   27.2300   11.4436 H   0  0  0  0  0  0  0  0  0  0  0  0
   24.5505   26.3803   10.9791 H   0  0  0  0  0  0  0  0  0  0  0  0
   25.0120   26.4610   12.6837 H   0  0  0  0  0  0  0  0  0  0  0  0
   25.5289   29.8055   12.5650 H   0  0  0  0  0  0  0  0  0  0  0  0
   24.4395   29.0930   13.8332 H   0  0  0  0  0  0  0  0  0  0  0  0
   23.8244   30.2274   12.6322 H   0  0  0  0  0  0  0  0  0  0  0  0
   25.1340   29.3920   10.2450 H   0  0  0  0  0  0  0  0  0  0  0  0
   23.5275   29.9778   10.6618 H   0  0  0  0  0  0  0  0  0  0  0  0
   23.6726   28.4672    9.7653 H   0  0  0  0  0  0  0  0  0  0  0  0
   19.5883   29.5812   13.6921 H   0  0  0  0  0  0  0  0  0  0  0  0
  1  2  2  0  0  0  0
  2  4  1  0  0  0  0
  2 13  1  0  0  0  0
  3  4  2  0  0  0  0
  3 12  1  0  0  0  0
  4  5  1  0  0  0  0
  5  6  2  0  0  0  0
  5 50  1  0  0  0  0
  6  7  1  0  0  0  0
  6 51  1  0  0  0  0
  7  8  2  0  0  0  0
  7 12  1  0  0  0  0
  8  9  1  0  0  0  0
  8 52  1  0  0  0  0
  9 10  2  0  0  0  0
  9 53  1  0  0  0  0
 10 11  1  0  0  0  0
 10 54  1  0  0  0  0
 11 12  2  0  0  0  0
 11 55  1  0  0  0  0
 13 14  1  0  0  0  0
 13 56  1  0  0  0  0
 14 15  1  0  0  0  0
 14 17  1  0  0  0  0
 14 57  1  1  0  0  0
 15 16  2  0  0  0  0
 15 24  1  0  0  0  0
 17 18  1  0  0  0  0
 17 58  1  0  0  0  0
 17 59  1  0  0  0  0
 18 19  2  0  0  0  0
 18 20  1  0  0  0  0
 20 60  1  0  0  0  0
 20 61  1  0  0  0  0
 21 22  1  0  0  0  0
 21 23  1  0  0  0  0
 21 33  1  0  0  0  0
 21 62  1  6  0  0  0
 22 63  1  0  0  0  0
 23 24  1  0  0  0  0
 23 25  1  0  0  0  0
 23 64  1  6  0  0  0
 24 65  1  0  0  0  0
 25 26  1  0  0  0  0
 25 66  1  0  0  0  0
 25 67  1  0  0  0  0
 26 27  2  0  0  0  0
 26 28  1  0  0  0  0
 27 29  1  0  0  0  0
 27 68  1  0  0  0  0
 28 30  2  0  0  0  0
 28 69  1  0  0  0  0
 29 31  2  0  0  0  0
 29 70  1  0  0  0  0
 30 31  1  0  0  0  0
 30 71  1  0  0  0  0
 31 72  1  0  0  0  0
 32 33  1  0  0  0  0
 32 34  1  0  0  0  0
 32 44  1  0  0  0  0
 32100  1  6  0  0  0
 33 73  1  0  0  0  0
 33 74  1  0  0  0  0
 34 35  1  0  0  0  0
 34 37  1  0  0  0  0
 34 75  1  1  0  0  0
 35 36  2  0  0  0  0
 35 45  1  0  0  0  0
 37 38  1  0  0  0  0
 37 76  1  0  0  0  0
 37 77  1  0  0  0  0
 38 39  1  0  0  0  0
 38 43  1  0  0  0  0
 38 78  1  1  0  0  0
 39 40  1  0  0  0  0
 39 79  1  0  0  0  0
 39 80  1  0  0  0  0
 40 41  1  0  0  0  0
 40 81  1  0  0  0  0
 40 82  1  0  0  0  0
 41 42  1  0  0  0  0
 41 83  1  0  0  0  0
 41 84  1  0  0  0  0
 42 43  1  0  0  0  0
 42 85  1  0  0  0  0
 42 86  1  0  0  0  0
 43 44  1  0  0  0  0
 43 87  1  1  0  0  0
 44 88  1  0  0  0  0
 44 89  1  0  0  0  0
 45 46  1  0  0  0  0
 45 90  1  0  0  0  0
 46 47  1  0  0  0  0
 46 48  1  0  0  0  0
 46 49  1  0  0  0  0
 47 91  1  0  0  0  0
 47 92  1  0  0  0  0
 47 93  1  0  0  0  0
 48 94  1  0  0  0  0
 48 95  1  0  0  0  0
 48 96  1  0  0  0  0
 49 97  1  0  0  0  0
 49 98  1  0  0  0  0
 49 99  1  0  0  0  0
M  CHG  1  32   1
M  END
$$$$
