RX3
 OpenBabel04051920153D

 78 82  0  0  1  0  0  0  0  0999 V2000
   33.1545    4.5683   25.3583 O   0  0  0  0  0  0  0  0  0  0  0  0
   31.9177    4.7108   25.1773 C   0  0  0  0  0  0  0  0  0  0  0  0
   31.0136    4.9771   26.0330 O   0  0  0  0  0  0  0  0  0  0  0  0
   31.4524    4.6053   23.6842 C   0  0  2  0  0  0  0  0  0  0  0  0
   32.0039    5.7597   22.8454 C   0  0  0  0  0  0  0  0  0  0  0  0
   31.4418    7.1138   23.1925 C   0  0  1  0  0  0  0  0  0  0  0  0
   30.4661    7.8423   22.4674 C   0  0  2  0  0  0  0  0  0  0  0  0
   29.7745    7.5667   21.2739 C   0  0  0  0  0  0  0  0  0  0  0  0
   28.8572    8.4925   20.7856 C   0  0  0  0  0  0  0  0  0  0  0  0
   28.6252    9.6803   21.4748 C   0  0  0  0  0  0  0  0  0  0  0  0
   29.2980    9.9740   22.6709 C   0  0  0  0  0  0  0  0  0  0  0  0
   30.2188    9.0406   23.1521 C   0  0  2  0  0  0  0  0  0  0  0  0
   31.0324    9.0631   24.3000 N   0  3  0  0  0  0  0  0  0  0  0  0
   31.7685    7.8827   24.2966 C   0  0  0  0  0  0  0  0  0  0  0  0
   30.0079    4.5495   23.4633 N   0  0  0  0  0  0  0  0  0  0  0  0
   29.2251    3.5387   23.9377 C   0  0  0  0  0  0  0  0  0  0  0  0
   29.6849    2.5652   24.5295 O   0  0  0  0  0  0  0  0  0  0  0  0
   27.7447    3.8241   23.6814 C   0  0  2  0  0  0  0  0  0  0  0  0
   27.2215    4.8948   24.6321 C   0  0  0  0  0  0  0  0  0  0  0  0
   26.0046    4.3074   25.3330 C   0  0  0  0  0  0  0  0  0  0  0  0
   26.0721    2.8037   25.1682 C   0  0  0  0  0  0  0  0  0  0  0  0
   26.9529    2.5690   23.9769 C   0  0  1  0  0  0  0  0  0  0  0  0
   26.5664    1.4827   22.6196 P   0  0  2  0  0  0  0  0  0  0  0  0
   27.6152    1.7143   21.5447 O   0  0  0  0  0  0  0  0  0  0  0  0
   25.1062    1.7042   22.2984 O   0  0  0  0  0  0  0  0  0  0  0  0
   26.8517   -0.2677   23.0875 C   0  0  1  0  0  0  0  0  0  0  0  0
   27.6951   -0.8162   24.2352 C   0  0  0  0  0  0  0  0  0  0  0  0
   27.6476   -2.3349   24.3413 C   0  0  0  0  0  0  0  0  0  0  0  0
   26.9228   -2.9144   25.3859 C   0  0  0  0  0  0  0  0  0  0  0  0
   26.8221   -4.3020   25.4943 C   0  0  0  0  0  0  0  0  0  0  0  0
   27.4327   -5.1289   24.5500 C   0  0  0  0  0  0  0  0  0  0  0  0
   28.1417   -4.5670   23.4889 C   0  0  0  0  0  0  0  0  0  0  0  0
   28.2527   -3.1761   23.3865 C   0  0  0  0  0  0  0  0  0  0  0  0
   26.1823   -1.2562   22.1983 N   0  0  0  0  0  0  0  0  0  0  0  0
   24.9848   -1.8098   21.8885 C   0  0  0  0  0  0  0  0  0  0  0  0
   23.9779   -1.8613   22.5826 O   0  0  0  0  0  0  0  0  0  0  0  0
   25.1608   -2.4546   20.6957 O   0  0  0  0  0  0  0  0  0  0  0  0
   23.9997   -2.6776   19.8768 C   0  0  0  0  0  0  0  0  0  0  0  0
   24.4057   -3.3773   18.5776 C   0  0  0  0  0  0  0  0  0  0  0  0
   25.2917   -2.7640   17.6773 C   0  0  0  0  0  0  0  0  0  0  0  0
   23.8995   -4.6505   18.2548 C   0  0  0  0  0  0  0  0  0  0  0  0
   24.2803   -5.3012   17.0740 C   0  0  0  0  0  0  0  0  0  0  0  0
   25.1682   -4.6812   16.1961 C   0  0  0  0  0  0  0  0  0  0  0  0
   25.6759   -3.4164   16.4985 C   0  0  0  0  0  0  0  0  0  0  0  0
   31.8637    3.6630   23.2879 H   0  0  0  0  0  0  0  0  0  0  0  0
   31.7633    5.5569   21.7882 H   0  0  0  0  0  0  0  0  0  0  0  0
   33.0907    5.8087   22.9260 H   0  0  0  0  0  0  0  0  0  0  0  0
   29.9632    6.6331   20.7487 H   0  0  0  0  0  0  0  0  0  0  0  0
   28.3265    8.2707   19.8651 H   0  0  0  0  0  0  0  0  0  0  0  0
   27.9048   10.3896   21.0760 H   0  0  0  0  0  0  0  0  0  0  0  0
   29.1016   10.8982   23.2025 H   0  0  0  0  0  0  0  0  0  0  0  0
   31.0618    9.7494   24.9815 H   0  0  0  0  0  0  0  0  0  0  0  0
   32.4541    7.6330   25.0928 H   0  0  0  0  0  0  0  0  0  0  0  0
   29.5610    5.3627   23.0668 H   0  0  0  0  0  0  0  0  0  0  0  0
   27.6613    4.1508   22.6335 H   0  0  0  0  0  0  0  0  0  0  0  0
   26.9407    5.7922   24.0685 H   0  0  0  0  0  0  0  0  0  0  0  0
   27.9804    5.1816   25.3687 H   0  0  0  0  0  0  0  0  0  0  0  0
   25.0872    4.6854   24.8724 H   0  0  0  0  0  0  0  0  0  0  0  0
   26.0005    4.5818   26.3929 H   0  0  0  0  0  0  0  0  0  0  0  0
   25.0845    2.3453   25.0795 H   0  0  0  0  0  0  0  0  0  0  0  0
   26.5731    2.3442   26.0343 H   0  0  0  0  0  0  0  0  0  0  0  0
   27.6969    1.9180   24.4275 H   0  0  0  0  0  0  0  0  0  0  0  0
   27.7371   -0.2488   22.4316 H   0  0  0  0  0  0  0  0  0  0  0  0
   27.3899   -0.3524   25.1727 H   0  0  0  0  0  0  0  0  0  0  0  0
   28.7498   -0.5227   24.0667 H   0  0  0  0  0  0  0  0  0  0  0  0
   26.4332   -2.2721   26.1138 H   0  0  0  0  0  0  0  0  0  0  0  0
   26.2634   -4.7316   26.3197 H   0  0  0  0  0  0  0  0  0  0  0  0
   27.3535   -6.2084   24.6436 H   0  0  0  0  0  0  0  0  0  0  0  0
   28.6097   -5.2071   22.7444 H   0  0  0  0  0  0  0  0  0  0  0  0
   28.7975   -2.7463   22.5465 H   0  0  0  0  0  0  0  0  0  0  0  0
   26.8982   -1.5861   21.5845 H   0  0  0  0  0  0  0  0  0  0  0  0
   23.5426   -1.7122   19.6126 H   0  0  0  0  0  0  0  0  0  0  0  0
   23.2497   -3.2938   20.3901 H   0  0  0  0  0  0  0  0  0  0  0  0
   25.6909   -1.7742   17.9016 H   0  0  0  0  0  0  0  0  0  0  0  0
   23.2063   -5.1417   18.9333 H   0  0  0  0  0  0  0  0  0  0  0  0
   23.8871   -6.2894   16.8445 H   0  0  0  0  0  0  0  0  0  0  0  0
   25.4640   -5.1811   15.2776 H   0  0  0  0  0  0  0  0  0  0  0  0
   26.3764   -2.9341   15.8195 H   0  0  0  0  0  0  0  0  0  0  0  0
  1  2  2  0  0  0  0
  2  3  1  0  0  0  0
  2  4  1  0  0  0  0
  4  5  1  0  0  0  0
  4 15  1  0  0  0  0
  4 45  1  6  0  0  0
  5 46  1  0  0  0  0
  5 47  1  0  0  0  0
  6  5  1  1  0  0  0
  6  7  1  0  0  0  0
  6 14  1  0  0  0  0
  7  8  1  6  0  0  0
  7 12  1  0  0  0  0
  8  9  1  0  0  0  0
  8 48  1  0  0  0  0
  9 10  1  0  0  0  0
  9 49  1  0  0  0  0
 10 11  1  0  0  0  0
 10 50  1  0  0  0  0
 11 51  1  0  0  0  0
 12 11  1  6  0  0  0
 12 13  1  0  0  0  0
 13 14  1  0  0  0  0
 13 52  1  0  0  0  0
 14 53  1  0  0  0  0
 15 16  1  0  0  0  0
 15 54  1  0  0  0  0
 16 17  2  0  0  0  0
 16 18  1  0  0  0  0
 18 19  1  0  0  0  0
 18 22  1  0  0  0  0
 18 55  1  6  0  0  0
 19 20  1  0  0  0  0
 19 56  1  0  0  0  0
 19 57  1  0  0  0  0
 20 21  1  0  0  0  0
 20 58  1  0  0  0  0
 20 59  1  0  0  0  0
 21 22  1  0  0  0  0
 21 60  1  0  0  0  0
 21 61  1  0  0  0  0
 22 23  1  0  0  0  0
 22 62  1  1  0  0  0
 23 24  2  6  0  0  0
 23 25  1  0  0  0  0
 23 26  1  0  0  0  0
 26 27  1  0  0  0  0
 26 34  1  0  0  0  0
 26 63  1  6  0  0  0
 27 28  1  0  0  0  0
 27 64  1  0  0  0  0
 27 65  1  0  0  0  0
 28 29  1  0  0  0  0
 28 33  1  0  0  0  0
 29 30  1  0  0  0  0
 29 66  1  0  0  0  0
 30 31  1  0  0  0  0
 30 67  1  0  0  0  0
 31 32  1  0  0  0  0
 31 68  1  0  0  0  0
 32 33  1  0  0  0  0
 32 69  1  0  0  0  0
 33 70  1  0  0  0  0
 34 35  1  0  0  0  0
 34 71  1  0  0  0  0
 35 36  2  0  0  0  0
 35 37  1  0  0  0  0
 37 38  1  0  0  0  0
 38 39  1  0  0  0  0
 38 72  1  0  0  0  0
 38 73  1  0  0  0  0
 39 40  1  0  0  0  0
 39 41  1  0  0  0  0
 40 44  1  0  0  0  0
 40 74  1  0  0  0  0
 41 42  1  0  0  0  0
 41 75  1  0  0  0  0
 42 43  1  0  0  0  0
 42 76  1  0  0  0  0
 43 44  1  0  0  0  0
 43 77  1  0  0  0  0
 44 78  1  0  0  0  0
M  CHG  1  13   1
M  END
$$$$
