SAH
 OpenBabel04051919003D

 46 48  0  0  1  0  0  0  0  0999 V2000
  -23.9028   37.0629    1.5366 N   0  3  0  0  0  0  0  0  0  0  0  0
  -24.1520   37.4650    0.0935 C   0  0  1  0  0  0  0  0  0  0  0  0
  -23.3463   36.5522   -0.8349 C   0  0  0  0  0  0  0  0  0  0  0  0
  -21.8761   36.9530   -0.9263 C   0  0  0  0  0  0  0  0  0  0  0  0
  -20.9451   35.8604   -2.0461 S   0  0  0  0  0  0  0  0  0  0  0  0
  -25.6685   37.3622   -0.2679 C   0  0  0  0  0  0  0  0  0  0  0  0
  -26.3272   36.8896    0.7160 O   0  0  0  0  0  0  0  0  0  0  0  0
  -26.0072   37.7723   -1.3919 O   0  0  0  0  0  0  0  0  0  0  0  0
  -20.6539   37.0135   -3.4475 C   0  0  0  0  0  0  0  0  0  0  0  0
  -21.5814   36.6707   -4.6110 C   0  0  1  0  0  0  0  0  0  0  0  0
  -22.9032   37.1349   -4.3043 O   0  0  0  0  0  0  0  0  0  0  0  0
  -21.1850   37.3416   -5.9237 C   0  0  1  0  0  0  0  0  0  0  0  0
  -20.1988   36.5943   -6.6220 O   0  0  0  0  0  0  0  0  0  0  0  0
  -22.5206   37.4104   -6.6520 C   0  0  1  0  0  0  0  0  0  0  0  0
  -22.7638   36.1408   -7.3019 O   0  0  0  0  0  0  0  0  0  0  0  0
  -23.5253   37.6296   -5.5158 C   0  0  2  0  0  0  0  0  0  0  0  0
  -23.9183   39.0095   -5.3171 N   0  3  0  0  0  0  0  0  0  0  0  0
  -23.8063   39.7505   -4.1687 C   0  0  0  0  0  0  0  0  0  0  0  0
  -24.2448   40.9824   -4.3234 N   0  0  0  0  0  0  0  0  0  0  0  0
  -24.7036   41.0244   -5.6216 C   0  0  0  0  0  0  0  0  0  0  0  0
  -25.2881   42.0595   -6.3632 C   0  0  0  0  0  0  0  0  0  0  0  0
  -25.4974   43.3086   -5.8162 N   0  0  0  0  0  0  0  0  0  0  0  0
  -25.6164   41.8214   -7.6535 N   0  0  0  0  0  0  0  0  0  0  0  0
  -25.3689   40.5884   -8.1556 C   0  0  0  0  0  0  0  0  0  0  0  0
  -24.8153   39.5162   -7.5411 N   0  0  0  0  0  0  0  0  0  0  0  0
  -24.5117   39.8159   -6.2626 C   0  0  0  0  0  0  0  0  0  0  0  0
  -24.5504   37.6268    2.1085 H   0  0  0  0  0  0  0  0  0  0  0  0
  -24.3049   36.1170    1.6516 H   0  0  0  0  0  0  0  0  0  0  0  0
  -23.8456   38.5135    0.0211 H   0  0  0  0  0  0  0  0  0  0  0  0
  -23.7823   36.5879   -1.8376 H   0  0  0  0  0  0  0  0  0  0  0  0
  -23.4308   35.5154   -0.4894 H   0  0  0  0  0  0  0  0  0  0  0  0
  -21.3875   36.8718    0.0480 H   0  0  0  0  0  0  0  0  0  0  0  0
  -21.7828   37.9924   -1.2510 H   0  0  0  0  0  0  0  0  0  0  0  0
  -19.6022   36.9416   -3.7214 H   0  0  0  0  0  0  0  0  0  0  0  0
  -20.8419   38.0420   -3.1133 H   0  0  0  0  0  0  0  0  0  0  0  0
  -21.6067   35.5819   -4.7598 H   0  0  0  0  0  0  0  0  0  0  0  0
  -20.7982   38.3526   -5.7529 H   0  0  0  0  0  0  0  0  0  0  0  0
  -20.6357   35.7565   -6.9000 H   0  0  0  0  0  0  0  0  0  0  0  0
  -22.5190   38.1751   -7.4314 H   0  0  0  0  0  0  0  0  0  0  0  0
  -23.6233   36.2269   -7.7567 H   0  0  0  0  0  0  0  0  0  0  0  0
  -24.4487   37.0517   -5.6589 H   0  0  0  0  0  0  0  0  0  0  0  0
  -23.3976   39.3548   -3.2520 H   0  0  0  0  0  0  0  0  0  0  0  0
  -25.9974   43.9996   -6.3485 H   0  0  0  0  0  0  0  0  0  0  0  0
  -25.3196   43.4141   -4.8280 H   0  0  0  0  0  0  0  0  0  0  0  0
  -25.6461   40.4465   -9.1977 H   0  0  0  0  0  0  0  0  0  0  0  0
  -22.9418   37.1248    1.8693 H   0  0  0  0  0  0  0  0  0  0  0  0
  1  2  1  0  0  0  0
  1 27  1  0  0  0  0
  1 28  1  0  0  0  0
  1 46  1  0  0  0  0
  2  3  1  0  0  0  0
  2  6  1  0  0  0  0
  2 29  1  6  0  0  0
  3  4  1  0  0  0  0
  3 30  1  0  0  0  0
  3 31  1  0  0  0  0
  4  5  1  0  0  0  0
  4 32  1  0  0  0  0
  4 33  1  0  0  0  0
  5  9  1  0  0  0  0
  6  7  2  0  0  0  0
  6  8  1  0  0  0  0
  9 10  1  0  0  0  0
  9 34  1  0  0  0  0
  9 35  1  0  0  0  0
 10 11  1  0  0  0  0
 10 12  1  0  0  0  0
 10 36  1  6  0  0  0
 11 16  1  0  0  0  0
 12 13  1  0  0  0  0
 12 14  1  0  0  0  0
 12 37  1  1  0  0  0
 13 38  1  0  0  0  0
 14 15  1  0  0  0  0
 14 16  1  0  0  0  0
 14 39  1  6  0  0  0
 15 40  1  0  0  0  0
 16 17  1  0  0  0  0
 16 41  1  6  0  0  0
 17 18  2  0  0  0  0
 17 26  1  0  0  0  0
 18 19  1  0  0  0  0
 18 42  1  0  0  0  0
 19 20  1  0  0  0  0
 20 21  2  0  0  0  0
 20 26  1  0  0  0  0
 21 22  1  0  0  0  0
 21 23  1  0  0  0  0
 22 43  1  0  0  0  0
 22 44  1  0  0  0  0
 23 24  2  0  0  0  0
 24 25  1  0  0  0  0
 24 45  1  0  0  0  0
 25 26  2  0  0  0  0
M  CHG  2   1   1  17   1
M  END
$$$$
