SAM
 OpenBabel04051919303D

 28 30  0  0  1  0  0  0  0  0999 V2000
   -9.4509  -26.8089   -3.5785 C   0  0  0  0  0  0  0  0  0  0  0  0
   -8.4406  -27.7780   -3.1879 O   0  0  0  0  0  0  0  0  0  0  0  0
   -8.8304  -25.4305   -3.3735 C   0  0  1  0  0  0  0  0  0  0  0  0
   -9.2970  -24.8797   -2.1353 O   0  0  0  0  0  0  0  0  0  0  0  0
   -7.3387  -25.6922   -3.2541 C   0  0  1  0  0  0  0  0  0  0  0  0
   -6.6495  -24.6840   -2.5312 O   0  0  0  0  0  0  0  0  0  0  0  0
   -7.3781  -27.0326   -2.5379 C   0  0  2  0  0  0  0  0  0  0  0  0
   -6.1177  -27.7307   -2.5439 N   0  3  0  0  0  0  0  0  0  0  0  0
   -5.5157  -28.2565   -3.6420 C   0  0  0  0  0  0  0  0  0  0  0  0
   -4.3218  -28.7633   -3.3459 N   0  0  0  0  0  0  0  0  0  0  0  0
   -4.1750  -28.5610   -1.9528 C   0  0  0  0  0  0  0  0  0  0  0  0
   -3.1558  -28.8916   -1.0367 C   0  0  0  0  0  0  0  0  0  0  0  0
   -2.0077  -29.5468   -1.4523 N   0  0  0  0  0  0  0  0  0  0  0  0
   -3.2962  -28.5632    0.2759 N   0  0  0  0  0  0  0  0  0  0  0  0
   -4.4242  -27.9176    0.6639 C   0  0  0  0  0  0  0  0  0  0  0  0
   -5.4679  -27.5542   -0.1373 N   0  0  0  0  0  0  0  0  0  0  0  0
   -5.2806  -27.9101   -1.4402 C   0  0  0  0  0  0  0  0  0  0  0  0
  -10.3463  -26.9481   -2.9527 H   0  0  0  0  0  0  0  0  0  0  0  0
   -9.7266  -26.9749   -4.6260 H   0  0  0  0  0  0  0  0  0  0  0  0
   -9.0849  -24.7482   -4.1879 H   0  0  0  0  0  0  0  0  0  0  0  0
   -9.0384  -25.4768   -1.4111 H   0  0  0  0  0  0  0  0  0  0  0  0
   -6.8813  -25.7798   -4.2452 H   0  0  0  0  0  0  0  0  0  0  0  0
   -7.0206  -24.6144   -1.6300 H   0  0  0  0  0  0  0  0  0  0  0  0
   -7.6669  -26.9045   -1.4910 H   0  0  0  0  0  0  0  0  0  0  0  0
   -5.9039  -28.2590   -4.6673 H   0  0  0  0  0  0  0  0  0  0  0  0
   -1.2991  -29.7708   -0.7930 H   0  0  0  0  0  0  0  0  0  0  0  0
   -1.9079  -29.7859   -2.4319 H   0  0  0  0  0  0  0  0  0  0  0  0
   -4.5033  -27.6561    1.7294 H   0  0  0  0  0  0  0  0  0  0  0  0
  1  2  1  0  0  0  0
  1  3  1  0  0  0  0
  1 18  1  0  0  0  0
  1 19  1  0  0  0  0
  2  7  1  0  0  0  0
  3  4  1  0  0  0  0
  3  5  1  0  0  0  0
  3 20  1  6  0  0  0
  4 21  1  0  0  0  0
  5  6  1  0  0  0  0
  5  7  1  0  0  0  0
  5 22  1  6  0  0  0
  6 23  1  0  0  0  0
  7  8  1  0  0  0  0
  7 24  1  1  0  0  0
  8  9  2  0  0  0  0
  8 17  1  0  0  0  0
  9 10  1  0  0  0  0
  9 25  1  0  0  0  0
 10 11  1  0  0  0  0
 11 12  2  0  0  0  0
 11 17  1  0  0  0  0
 12 13  1  0  0  0  0
 12 14  1  0  0  0  0
 13 26  1  0  0  0  0
 13 27  1  0  0  0  0
 14 15  2  0  0  0  0
 15 16  1  0  0  0  0
 15 28  1  0  0  0  0
 16 17  2  0  0  0  0
M  CHG  1   8   1
M  END
$$$$
