SCK
 OpenBabel04051918083D

 50 49  0  0  0  0  0  0  0  0999 V2000
   30.8745   23.0529   11.8841 O   0  0  0  0  0  0  0  0  0  0  0  0
   29.8464   22.3312   11.7727 C   0  0  0  0  0  0  0  0  0  0  0  0
   29.0067   22.2439   12.8404 O   0  0  0  0  0  0  0  0  0  0  0  0
   28.6540   20.9522   13.2998 C   0  0  0  0  0  0  0  0  0  0  0  0
   27.3517   21.0257   14.0978 C   0  0  0  0  0  0  0  0  0  0  0  0
   26.8477   19.6212   14.3595 N   0  3  0  0  0  0  0  0  0  0  0  0
   27.6362   19.0032   15.4855 C   0  0  0  0  0  0  0  0  0  0  0  0
   25.3895   19.6673   14.7327 C   0  0  0  0  0  0  0  0  0  0  0  0
   27.0058   18.7946   13.1051 C   0  0  0  0  0  0  0  0  0  0  0  0
   29.5296   21.6707   10.4664 C   0  0  0  0  0  0  0  0  0  0  0  0
   30.4335   22.2746    9.3597 C   0  0  0  0  0  0  0  0  0  0  0  0
   31.8054   21.6546    9.4387 C   0  0  0  0  0  0  0  0  0  0  0  0
   31.9411   20.4146    9.5565 O   0  0  0  0  0  0  0  0  0  0  0  0
   32.8766   22.4787    9.3175 O   0  0  0  0  0  0  0  0  0  0  0  0
   34.0907   21.9272    8.7776 C   0  0  0  0  0  0  0  0  0  0  0  0
   34.9559   23.0459    8.1926 C   0  0  0  0  0  0  0  0  0  0  0  0
   35.7978   23.6777    9.2862 N   0  3  0  0  0  0  0  0  0  0  0  0
   36.5185   22.6076   10.0567 C   0  0  0  0  0  0  0  0  0  0  0  0
   36.8210   24.6002    8.6798 C   0  0  0  0  0  0  0  0  0  0  0  0
   34.9059   24.4716   10.2018 C   0  0  0  0  0  0  0  0  0  0  0  0
   29.4308   20.5238   13.9449 H   0  0  0  0  0  0  0  0  0  0  0  0
   28.5275   20.3298   12.4228 H   0  0  0  0  0  0  0  0  0  0  0  0
   26.5762   21.5598   13.5378 H   0  0  0  0  0  0  0  0  0  0  0  0
   27.4981   21.5163   15.0700 H   0  0  0  0  0  0  0  0  0  0  0  0
   27.2594   17.9930   15.6378 H   0  0  0  0  0  0  0  0  0  0  0  0
   27.4974   19.6217   16.3735 H   0  0  0  0  0  0  0  0  0  0  0  0
   28.6856   18.9811   15.1883 H   0  0  0  0  0  0  0  0  0  0  0  0
   24.8469   20.1207   13.9001 H   0  0  0  0  0  0  0  0  0  0  0  0
   25.2929   20.2672   15.6384 H   0  0  0  0  0  0  0  0  0  0  0  0
   25.0612   18.6399   14.8985 H   0  0  0  0  0  0  0  0  0  0  0  0
   28.0676   18.7133   12.8851 H   0  0  0  0  0  0  0  0  0  0  0  0
   26.4528   19.2853   12.3113 H   0  0  0  0  0  0  0  0  0  0  0  0
   26.6563   17.7883   13.3138 H   0  0  0  0  0  0  0  0  0  0  0  0
   28.4745   21.8392   10.2002 H   0  0  0  0  0  0  0  0  0  0  0  0
   29.7162   20.5903   10.5371 H   0  0  0  0  0  0  0  0  0  0  0  0
   30.4969   23.3646    9.4799 H   0  0  0  0  0  0  0  0  0  0  0  0
   29.9913   22.0617    8.3730 H   0  0  0  0  0  0  0  0  0  0  0  0
   33.8794   21.2144    7.9822 H   0  0  0  0  0  0  0  0  0  0  0  0
   34.6259   21.3438    9.5293 H   0  0  0  0  0  0  0  0  0  0  0  0
   34.3290   23.8400    7.7711 H   0  0  0  0  0  0  0  0  0  0  0  0
   35.6556   22.6729    7.4339 H   0  0  0  0  0  0  0  0  0  0  0  0
   37.0954   23.0685   10.8486 H   0  0  0  0  0  0  0  0  0  0  0  0
   37.1250   22.0310    9.3581 H   0  0  0  0  0  0  0  0  0  0  0  0
   35.7940   21.9745   10.5650 H   0  0  0  0  0  0  0  0  0  0  0  0
   36.2893   25.3765    8.1281 H   0  0  0  0  0  0  0  0  0  0  0  0
   37.4537   24.0080    8.0152 H   0  0  0  0  0  0  0  0  0  0  0  0
   37.4057   25.0267    9.4979 H   0  0  0  0  0  0  0  0  0  0  0  0
   34.1763   23.7919   10.6400 H   0  0  0  0  0  0  0  0  0  0  0  0
   34.4152   25.2443    9.6075 H   0  0  0  0  0  0  0  0  0  0  0  0
   35.5286   24.9026   10.9834 H   0  0  0  0  0  0  0  0  0  0  0  0
  1  2  2  0  0  0  0
  2  3  1  0  0  0  0
  2 10  1  0  0  0  0
  3  4  1  0  0  0  0
  4  5  1  0  0  0  0
  4 21  1  0  0  0  0
  4 22  1  0  0  0  0
  5  6  1  0  0  0  0
  5 23  1  0  0  0  0
  5 24  1  0  0  0  0
  6  7  1  0  0  0  0
  6  8  1  0  0  0  0
  6  9  1  0  0  0  0
  7 25  1  0  0  0  0
  7 26  1  0  0  0  0
  7 27  1  0  0  0  0
  8 28  1  0  0  0  0
  8 29  1  0  0  0  0
  8 30  1  0  0  0  0
  9 31  1  0  0  0  0
  9 32  1  0  0  0  0
  9 33  1  0  0  0  0
 10 11  1  0  0  0  0
 10 34  1  0  0  0  0
 10 35  1  0  0  0  0
 11 12  1  0  0  0  0
 11 36  1  0  0  0  0
 11 37  1  0  0  0  0
 12 13  2  0  0  0  0
 12 14  1  0  0  0  0
 14 15  1  0  0  0  0
 15 16  1  0  0  0  0
 15 38  1  0  0  0  0
 15 39  1  0  0  0  0
 16 17  1  0  0  0  0
 16 40  1  0  0  0  0
 16 41  1  0  0  0  0
 17 18  1  0  0  0  0
 17 19  1  0  0  0  0
 17 20  1  0  0  0  0
 18 42  1  0  0  0  0
 18 43  1  0  0  0  0
 18 44  1  0  0  0  0
 19 45  1  0  0  0  0
 19 46  1  0  0  0  0
 19 47  1  0  0  0  0
 20 48  1  0  0  0  0
 20 49  1  0  0  0  0
 20 50  1  0  0  0  0
M  CHG  2   6   1  17   1
M  END
$$$$
