SCK
 OpenBabel04051918083D

 50 49  0  0  0  0  0  0  0  0999 V2000
   29.8877   22.6751   11.9947 O   0  0  0  0  0  0  0  0  0  0  0  0
   29.0239   21.8164   11.9518 C   0  0  0  0  0  0  0  0  0  0  0  0
   28.4662   21.3954   13.1170 O   0  0  0  0  0  0  0  0  0  0  0  0
   27.1361   20.8747   13.2785 C   0  0  0  0  0  0  0  0  0  0  0  0
   27.1579   19.3478   13.2416 C   0  0  0  0  0  0  0  0  0  0  0  0
   26.6574   18.7207   14.5392 N   0  3  0  0  0  0  0  0  0  0  0  0
   26.7302   17.2011   14.4270 C   0  0  0  0  0  0  0  0  0  0  0  0
   27.5522   19.1448   15.6926 C   0  0  0  0  0  0  0  0  0  0  0  0
   25.2099   19.1180   14.7677 C   0  0  0  0  0  0  0  0  0  0  0  0
   28.6723   21.1237   10.6394 C   0  0  0  0  0  0  0  0  0  0  0  0
   29.5258   21.7041    9.4675 C   0  0  0  0  0  0  0  0  0  0  0  0
   30.9633   21.1935    9.5254 C   0  0  0  0  0  0  0  0  0  0  0  0
   31.1960   20.0151    9.8633 O   0  0  0  0  0  0  0  0  0  0  0  0
   31.9495   22.0701    9.1973 O   0  0  0  0  0  0  0  0  0  0  0  0
   33.3344   21.5788    9.3671 C   0  0  0  0  0  0  0  0  0  0  0  0
   34.3761   22.3755    8.5400 C   0  0  0  0  0  0  0  0  0  0  0  0
   35.2249   23.3404    9.3898 N   0  3  0  0  0  0  0  0  0  0  0  0
   34.3388   24.4439    9.9165 C   0  0  0  0  0  0  0  0  0  0  0  0
   35.9164   22.6208   10.5327 C   0  0  0  0  0  0  0  0  0  0  0  0
   36.3162   23.9553    8.5185 C   0  0  0  0  0  0  0  0  0  0  0  0
   26.4730   21.2827   12.5085 H   0  0  0  0  0  0  0  0  0  0  0  0
   26.7648   21.2623   14.2341 H   0  0  0  0  0  0  0  0  0  0  0  0
   28.1741   18.9712   13.0851 H   0  0  0  0  0  0  0  0  0  0  0  0
   26.4936   18.9895   12.4517 H   0  0  0  0  0  0  0  0  0  0  0  0
   26.3702   16.7727   15.3673 H   0  0  0  0  0  0  0  0  0  0  0  0
   27.7723   16.9228   14.2501 H   0  0  0  0  0  0  0  0  0  0  0  0
   26.0986   16.8900   13.5910 H   0  0  0  0  0  0  0  0  0  0  0  0
   27.5083   20.2266   15.7981 H   0  0  0  0  0  0  0  0  0  0  0  0
   28.5746   18.8293   15.4570 H   0  0  0  0  0  0  0  0  0  0  0  0
   27.1908   18.6660   16.6050 H   0  0  0  0  0  0  0  0  0  0  0  0
   24.6263   18.7789   13.9049 H   0  0  0  0  0  0  0  0  0  0  0  0
   25.1502   20.2035   14.8507 H   0  0  0  0  0  0  0  0  0  0  0  0
   24.8600   18.6549   15.6937 H   0  0  0  0  0  0  0  0  0  0  0  0
   27.6109   21.2769   10.4315 H   0  0  0  0  0  0  0  0  0  0  0  0
   28.8674   20.0456   10.7318 H   0  0  0  0  0  0  0  0  0  0  0  0
   29.5060   22.8054    9.4838 H   0  0  0  0  0  0  0  0  0  0  0  0
   29.0737   21.3868    8.5108 H   0  0  0  0  0  0  0  0  0  0  0  0
   33.4176   20.5323    9.0569 H   0  0  0  0  0  0  0  0  0  0  0  0
   33.5518   21.6348   10.4338 H   0  0  0  0  0  0  0  0  0  0  0  0
   33.8947   22.9904    7.7713 H   0  0  0  0  0  0  0  0  0  0  0  0
   35.0995   21.6970    8.0735 H   0  0  0  0  0  0  0  0  0  0  0  0
   34.9558   25.1202   10.5133 H   0  0  0  0  0  0  0  0  0  0  0  0
   33.5619   23.9874   10.5307 H   0  0  0  0  0  0  0  0  0  0  0  0
   33.9037   24.9632    9.0580 H   0  0  0  0  0  0  0  0  0  0  0  0
   36.5433   21.8327   10.1108 H   0  0  0  0  0  0  0  0  0  0  0  0
   35.1658   22.2000   11.1966 H   0  0  0  0  0  0  0  0  0  0  0  0
   36.5024   23.3501   11.0961 H   0  0  0  0  0  0  0  0  0  0  0  0
   35.8330   24.4821    7.6919 H   0  0  0  0  0  0  0  0  0  0  0  0
   36.9540   23.1489    8.1510 H   0  0  0  0  0  0  0  0  0  0  0  0
   36.8921   24.6502    9.1397 H   0  0  0  0  0  0  0  0  0  0  0  0
  1  2  2  0  0  0  0
  2  3  1  0  0  0  0
  2 10  1  0  0  0  0
  3  4  1  0  0  0  0
  4  5  1  0  0  0  0
  4 21  1  0  0  0  0
  4 22  1  0  0  0  0
  5  6  1  0  0  0  0
  5 23  1  0  0  0  0
  5 24  1  0  0  0  0
  6  7  1  0  0  0  0
  6  8  1  0  0  0  0
  6  9  1  0  0  0  0
  7 25  1  0  0  0  0
  7 26  1  0  0  0  0
  7 27  1  0  0  0  0
  8 28  1  0  0  0  0
  8 29  1  0  0  0  0
  8 30  1  0  0  0  0
  9 31  1  0  0  0  0
  9 32  1  0  0  0  0
  9 33  1  0  0  0  0
 10 11  1  0  0  0  0
 10 34  1  0  0  0  0
 10 35  1  0  0  0  0
 11 12  1  0  0  0  0
 11 36  1  0  0  0  0
 11 37  1  0  0  0  0
 12 13  2  0  0  0  0
 12 14  1  0  0  0  0
 14 15  1  0  0  0  0
 15 16  1  0  0  0  0
 15 38  1  0  0  0  0
 15 39  1  0  0  0  0
 16 17  1  0  0  0  0
 16 40  1  0  0  0  0
 16 41  1  0  0  0  0
 17 18  1  0  0  0  0
 17 19  1  0  0  0  0
 17 20  1  0  0  0  0
 18 42  1  0  0  0  0
 18 43  1  0  0  0  0
 18 44  1  0  0  0  0
 19 45  1  0  0  0  0
 19 46  1  0  0  0  0
 19 47  1  0  0  0  0
 20 48  1  0  0  0  0
 20 49  1  0  0  0  0
 20 50  1  0  0  0  0
M  CHG  2   6   1  17   1
M  END
$$$$
