SFB
 OpenBabel04051920323D

 66 70  0  0  1  0  0  0  0  0999 V2000
   35.4968    6.8599   22.3910 N   0  0  0  0  0  0  0  0  0  0  0  0
   39.0078    6.7070   18.6589 C   0  0  1  0  0  0  0  0  0  0  0  0
   37.5735    0.3900   12.0008 C   0  0  1  0  0  0  0  0  0  0  0  0
   36.8034   -0.8679   12.0700 N   0  3  0  0  0  0  0  0  0  0  0  0
   39.1940    2.8819   14.3016 C   0  0  0  0  0  0  0  0  0  0  0  0
   41.7578    2.5222   14.9573 O   0  0  0  0  0  0  0  0  0  0  0  0
   35.9229    7.7928   21.5145 C   0  0  0  0  0  0  0  0  0  0  0  0
   40.4885    6.9194   19.0045 C   0  0  2  0  0  0  0  0  0  0  0  0
   40.7439    8.1851   19.6093 O   0  0  0  0  0  0  0  0  0  0  0  0
   37.4923    1.2108   13.2927 C   0  0  2  0  0  0  0  0  0  0  0  0
   36.6474    2.3392   13.1423 O   0  0  0  0  0  0  0  0  0  0  0  0
   35.6470   -0.9054   11.2879 C   0  0  0  0  0  0  0  0  0  0  0  0
   35.2724   -0.0031   10.5576 O   0  0  0  0  0  0  0  0  0  0  0  0
   39.9700    1.6846   16.5419 O   0  0  0  0  0  0  0  0  0  0  0  0
   36.8587    7.6706   20.5463 N   0  0  0  0  0  0  0  0  0  0  0  0
   41.2195    6.7840   17.6691 C   0  0  2  0  0  0  0  0  0  0  0  0
   41.9185    7.9651   17.2822 O   0  0  0  0  0  0  0  0  0  0  0  0
   38.9266    1.5460   13.6314 C   0  0  1  0  0  0  0  0  0  0  0  0
   34.8971   -2.0528   11.3837 N   0  3  0  0  0  0  0  0  0  0  0  0
   40.4563    4.0794   16.3874 N   0  0  0  0  0  0  0  0  0  0  0  0
   37.3572    6.4129   20.5066 C   0  0  0  0  0  0  0  0  0  0  0  0
   40.1265    6.4655   16.6572 C   0  0  2  0  0  0  0  0  0  0  0  0
   38.9376    6.0795   17.3904 O   0  0  0  0  0  0  0  0  0  0  0  0
   39.7651    1.1400   12.4146 C   0  0  2  0  0  0  0  0  0  0  0  0
   38.9583    0.1440   11.7243 O   0  0  0  0  0  0  0  0  0  0  0  0
   35.1349   -3.1123   12.2052 C   0  0  0  0  0  0  0  0  0  0  0  0
   34.4123   -4.1002   12.2494 O   0  0  0  0  0  0  0  0  0  0  0  0
   37.0173    5.3724   21.3493 C   0  0  0  0  0  0  0  0  0  0  0  0
   40.5158    5.3442   15.6926 C   0  0  1  0  0  0  0  0  0  0  0  0
   41.7901    5.5251   15.1281 O   0  0  0  0  0  0  0  0  0  0  0  0
   41.0515    0.3988   12.8082 C   0  0  0  0  0  0  0  0  0  0  0  0
   40.7459   -0.6294   13.7553 O   0  0  0  0  0  0  0  0  0  0  0  0
   36.3378   -2.9848   13.0566 C   0  0  0  0  0  0  0  0  0  0  0  0
   36.0443    5.6182   22.3368 C   0  0  0  0  0  0  0  0  0  0  0  0
   35.6375    4.6785   23.2512 N   0  0  0  0  0  0  0  0  0  0  0  0
   37.0810   -1.8959   12.9695 C   0  0  0  0  0  0  0  0  0  0  0  0
   37.7662    4.2455   21.0421 N   0  0  0  0  0  0  0  0  0  0  0  0
   38.5121    4.6120   20.0197 C   0  0  0  0  0  0  0  0  0  0  0  0
   38.2973    5.9160   19.6589 N   0  3  0  0  0  0  0  0  0  0  0  0
   40.4607    2.6619   15.5845 S   0  0  0  0  0  0  0  0  0  0  0  0
   38.4966    7.6690   18.5839 H   0  0  0  0  0  0  0  0  0  0  0  0
   37.2033    1.0013   11.1737 H   0  0  0  0  0  0  0  0  0  0  0  0
   38.3131    3.2376   14.8512 H   0  0  0  0  0  0  0  0  0  0  0  0
   39.5322    3.6574   13.6087 H   0  0  0  0  0  0  0  0  0  0  0  0
   35.4549    8.7685   21.6013 H   0  0  0  0  0  0  0  0  0  0  0  0
   40.8564    6.1480   19.6903 H   0  0  0  0  0  0  0  0  0  0  0  0
   40.1432    8.2817   20.3729 H   0  0  0  0  0  0  0  0  0  0  0  0
   37.0984    0.5993   14.1126 H   0  0  0  0  0  0  0  0  0  0  0  0
   36.4639    2.7069   14.0233 H   0  0  0  0  0  0  0  0  0  0  0  0
   41.9613    5.9803   17.7309 H   0  0  0  0  0  0  0  0  0  0  0  0
   42.4559    8.2275   18.0555 H   0  0  0  0  0  0  0  0  0  0  0  0
   39.1580    0.8062   14.3887 H   0  0  0  0  0  0  0  0  0  0  0  0
   34.0700   -2.0916   10.8142 H   0  0  0  0  0  0  0  0  0  0  0  0
   40.6696    3.9993   17.3781 H   0  0  0  0  0  0  0  0  0  0  0  0
   39.9087    7.3566   16.0521 H   0  0  0  0  0  0  0  0  0  0  0  0
   39.9986    1.9733   11.7346 H   0  0  0  0  0  0  0  0  0  0  0  0
   39.7784    5.3295   14.8901 H   0  0  0  0  0  0  0  0  0  0  0  0
   41.7992    6.3907   14.6875 H   0  0  0  0  0  0  0  0  0  0  0  0
   41.7889    1.0647   13.2470 H   0  0  0  0  0  0  0  0  0  0  0  0
   41.5151   -0.0923   11.9478 H   0  0  0  0  0  0  0  0  0  0  0  0
   40.0724   -1.1874   13.3278 H   0  0  0  0  0  0  0  0  0  0  0  0
   36.5220   -3.8135   13.7374 H   0  0  0  0  0  0  0  0  0  0  0  0
   36.0172    3.7450   23.1913 H   0  0  0  0  0  0  0  0  0  0  0  0
   34.8995    4.9125   23.8941 H   0  0  0  0  0  0  0  0  0  0  0  0
   37.9406   -1.7902   13.6232 H   0  0  0  0  0  0  0  0  0  0  0  0
   39.2429    3.9680   19.5318 H   0  0  0  0  0  0  0  0  0  0  0  0
  1  7  2  0  0  0  0
  1 34  1  0  0  0  0
  2  8  1  0  0  0  0
  2 23  1  0  0  0  0
  2 39  1  0  0  0  0
  2 41  1  6  0  0  0
  3  4  1  0  0  0  0
  3 10  1  0  0  0  0
  3 25  1  0  0  0  0
  3 42  1  6  0  0  0
  4 12  1  0  0  0  0
  4 36  1  0  0  0  0
  5 18  1  0  0  0  0
  5 40  1  0  0  0  0
  5 43  1  0  0  0  0
  5 44  1  0  0  0  0
  6 40  2  0  0  0  0
  7 15  1  0  0  0  0
  7 45  1  0  0  0  0
  8  9  1  0  0  0  0
  8 16  1  0  0  0  0
  8 46  1  1  0  0  0
  9 47  1  0  0  0  0
 10 11  1  0  0  0  0
 10 18  1  0  0  0  0
 10 48  1  1  0  0  0
 11 49  1  0  0  0  0
 12 13  2  0  0  0  0
 12 19  1  0  0  0  0
 14 40  2  0  0  0  0
 15 21  2  0  0  0  0
 16 17  1  0  0  0  0
 16 22  1  0  0  0  0
 16 50  1  1  0  0  0
 17 51  1  0  0  0  0
 18 24  1  0  0  0  0
 18 52  1  1  0  0  0
 19 26  1  0  0  0  0
 19 53  1  0  0  0  0
 20 29  1  0  0  0  0
 20 40  1  0  0  0  0
 20 54  1  0  0  0  0
 21 28  1  0  0  0  0
 21 39  1  0  0  0  0
 22 23  1  0  0  0  0
 22 29  1  0  0  0  0
 22 55  1  6  0  0  0
 24 25  1  0  0  0  0
 24 31  1  0  0  0  0
 24 56  1  6  0  0  0
 26 27  2  0  0  0  0
 26 33  1  0  0  0  0
 28 34  2  0  0  0  0
 28 37  1  0  0  0  0
 29 30  1  0  0  0  0
 29 57  1  6  0  0  0
 30 58  1  0  0  0  0
 31 32  1  0  0  0  0
 31 59  1  0  0  0  0
 31 60  1  0  0  0  0
 32 61  1  0  0  0  0
 33 36  2  0  0  0  0
 33 62  1  0  0  0  0
 34 35  1  0  0  0  0
 35 63  1  0  0  0  0
 35 64  1  0  0  0  0
 36 65  1  0  0  0  0
 37 38  1  0  0  0  0
 38 39  2  0  0  0  0
 38 66  1  0  0  0  0
M  CHG  3   4   1  19   1  39   1
M  END
$$$$
