SIA
 OpenBabel04051919103D

 39 39  0  0  1  0  0  0  0  0999 V2000
   23.7133   19.9133   65.0019 C   0  0  0  0  0  0  0  0  0  0  0  0
   24.5983   18.6558   64.5077 C   0  0  2  0  0  0  0  0  0  0  0  0
   23.6410   17.6049   63.9366 C   0  0  0  0  0  0  0  0  0  0  0  0
   24.2273   16.8160   62.7863 C   0  0  1  0  0  0  0  0  0  0  0  0
   25.7496   16.8090   62.7784 C   0  0  2  0  0  0  0  0  0  0  0  0
   26.2444   18.2438   62.7037 C   0  0  2  0  0  0  0  0  0  0  0  0
   27.7582   18.3704   62.9914 C   0  0  1  0  0  0  0  0  0  0  0  0
   28.2177   19.8172   62.7462 C   0  0  1  0  0  0  0  0  0  0  0  0
   29.7092   19.9795   63.0670 C   0  0  0  0  0  0  0  0  0  0  0  0
   27.0150   14.9465   61.7858 C   0  0  0  0  0  0  0  0  0  0  0  0
   27.4547   14.2754   60.5338 C   0  0  0  0  0  0  0  0  0  0  0  0
   26.2158   16.0477   61.6347 N   0  0  0  0  0  0  0  0  0  0  0  0
   22.5117   19.6831   65.2968 O   0  0  0  0  0  0  0  0  0  0  0  0
   24.3325   21.0291   65.0246 O   0  0  0  0  0  0  0  0  0  0  0  0
   25.3289   18.1534   65.6433 O   0  0  0  0  0  0  0  0  0  0  0  0
   23.7324   15.4733   62.8208 O   0  0  0  0  0  0  0  0  0  0  0  0
   25.5411   19.1542   63.5429 O   0  0  0  0  0  0  0  0  0  0  0  0
   28.0229   17.9766   64.3382 O   0  0  0  0  0  0  0  0  0  0  0  0
   27.9889   20.0988   61.3506 O   0  0  0  0  0  0  0  0  0  0  0  0
   30.5025   19.4644   61.9960 O   0  0  0  0  0  0  0  0  0  0  0  0
   27.3290   14.5054   62.9076 O   0  0  0  0  0  0  0  0  0  0  0  0
   22.7361   18.0799   63.5337 H   0  0  0  0  0  0  0  0  0  0  0  0
   23.2897   16.9286   64.7262 H   0  0  0  0  0  0  0  0  0  0  0  0
   23.8734   17.2453   61.8381 H   0  0  0  0  0  0  0  0  0  0  0  0
   26.1096   16.3350   63.7031 H   0  0  0  0  0  0  0  0  0  0  0  0
   26.0660   18.5915   61.6775 H   0  0  0  0  0  0  0  0  0  0  0  0
   28.3200   17.7159   62.3123 H   0  0  0  0  0  0  0  0  0  0  0  0
   27.6444   20.5142   63.3784 H   0  0  0  0  0  0  0  0  0  0  0  0
   29.9929   19.4749   63.9935 H   0  0  0  0  0  0  0  0  0  0  0  0
   29.9743   21.0364   63.1728 H   0  0  0  0  0  0  0  0  0  0  0  0
   28.0650   13.4062   60.8452 H   0  0  0  0  0  0  0  0  0  0  0  0
   28.0660   14.9436   59.9435 H   0  0  0  0  0  0  0  0  0  0  0  0
   26.5839   13.9129   59.9916 H   0  0  0  0  0  0  0  0  0  0  0  0
   26.0047   16.4013   60.6919 H   0  0  0  0  0  0  0  0  0  0  0  0
   25.8076   17.3547   65.3829 H   0  0  0  0  0  0  0  0  0  0  0  0
   24.2162   14.9935   62.1283 H   0  0  0  0  0  0  0  0  0  0  0  0
   27.4739   18.5635   64.8932 H   0  0  0  0  0  0  0  0  0  0  0  0
   28.1547   21.0389   61.1994 H   0  0  0  0  0  0  0  0  0  0  0  0
   30.1564   19.8940   61.1953 H   0  0  0  0  0  0  0  0  0  0  0  0
  1 14  2  0  0  0  0
  1 13  1  0  0  0  0
  2  1  1  1  0  0  0
  2 17  1  0  0  0  0
  2 15  1  0  0  0  0
  2  3  1  0  0  0  0
  3  4  1  0  0  0  0
  3 22  1  0  0  0  0
  3 23  1  0  0  0  0
  4 16  1  0  0  0  0
  4  5  1  0  0  0  0
  4 24  1  6  0  0  0
  5 12  1  0  0  0  0
  5  6  1  0  0  0  0
  5 25  1  1  0  0  0
  6 17  1  0  0  0  0
  6  7  1  0  0  0  0
  6 26  1  6  0  0  0
  7 18  1  0  0  0  0
  7  8  1  0  0  0  0
  7 27  1  6  0  0  0
  8 19  1  0  0  0  0
  8  9  1  0  0  0  0
  8 28  1  1  0  0  0
  9 20  1  0  0  0  0
  9 29  1  0  0  0  0
  9 30  1  0  0  0  0
 10 12  1  0  0  0  0
 10 21  2  0  0  0  0
 10 11  1  0  0  0  0
 11 31  1  0  0  0  0
 11 32  1  0  0  0  0
 11 33  1  0  0  0  0
 12 34  1  0  0  0  0
 15 35  1  0  0  0  0
 16 36  1  0  0  0  0
 18 37  1  0  0  0  0
 19 38  1  0  0  0  0
 20 39  1  0  0  0  0
M  END
$$$$
