SNL
 OpenBabel04051918363D

 61 65  0  0  1  0  0  0  0  0999 V2000
  -22.9701   57.7815    2.8681 C   0  0  0  0  0  0  0  0  0  0  0  0
  -21.4542   61.3565    3.2020 C   0  0  0  0  0  0  0  0  0  0  0  0
  -21.6395   59.8797    2.6456 C   0  0  1  0  0  0  0  0  0  0  0  0
  -17.6347   61.0629    4.5749 C   0  0  1  0  0  0  0  0  0  0  0  0
  -20.9983   58.9113    3.7217 C   0  0  1  0  0  0  0  0  0  0  0  0
  -17.4450   62.5370    5.2214 C   0  0  0  0  0  0  0  0  0  0  0  0
  -19.9785   61.7336    3.5004 C   0  0  0  0  0  0  0  0  0  0  0  0
  -21.5765   57.4993    3.4527 C   0  0  0  0  0  0  0  0  0  0  0  0
  -23.1377   59.3038    2.6290 C   0  0  2  0  0  0  0  0  0  0  0  0
  -21.0007   59.7652    1.1905 C   0  0  0  0  0  0  0  0  0  0  0  0
  -16.9575   61.0681    3.1820 C   0  0  0  0  0  0  0  0  0  0  0  0
  -16.0363   62.8147    5.7929 C   0  0  0  0  0  0  0  0  0  0  0  0
  -24.1198   59.8685    3.6643 C   0  0  0  0  0  0  0  0  0  0  0  0
  -25.1272   60.6945    2.8846 C   0  0  0  0  0  0  0  0  0  0  0  0
  -24.7277   60.4991    1.4408 C   0  0  0  0  0  0  0  0  0  0  0  0
  -19.2737   56.7580    7.5866 C   0  0  0  0  0  0  0  0  0  0  0  0
  -20.0045   56.3907    8.8694 C   0  0  0  0  0  0  0  0  0  0  0  0
  -15.5281   61.6464    6.6318 C   0  0  0  0  0  0  0  0  0  0  0  0
  -15.9881   60.2475    6.3671 C   0  0  0  0  0  0  0  0  0  0  0  0
  -16.9111   59.9521    5.4216 C   0  0  0  0  0  0  0  0  0  0  0  0
  -17.2952   58.4598    5.1544 C   0  0  0  0  0  0  0  0  0  0  0  0
  -18.8261   58.1562    5.0323 C   0  0  2  0  0  0  0  0  0  0  0  0
  -19.4757   59.1503    3.9705 C   0  0  2  0  0  0  0  0  0  0  0  0
  -19.2102   60.6949    4.3973 C   0  0  1  0  0  0  0  0  0  0  0  0
  -25.1314   61.1231    0.4985 O   0  0  0  0  0  0  0  0  0  0  0  0
  -23.8100   59.4769    1.3739 O   0  0  0  0  0  0  0  0  0  0  0  0
  -18.3728   56.0350    7.1616 O   0  0  0  0  0  0  0  0  0  0  0  0
  -14.6771   61.8247    7.5697 O   0  0  0  0  0  0  0  0  0  0  0  0
  -19.7079   58.2532    6.7311 S   0  0  0  0  0  0  0  0  0  0  0  0
  -23.7385   57.4227    3.5690 H   0  0  0  0  0  0  0  0  0  0  0  0
  -23.1000   57.2329    1.9272 H   0  0  0  0  0  0  0  0  0  0  0  0
  -21.9795   61.5024    4.1597 H   0  0  0  0  0  0  0  0  0  0  0  0
  -21.8661   62.1250    2.5190 H   0  0  0  0  0  0  0  0  0  0  0  0
  -21.4605   59.1674    4.6805 H   0  0  0  0  0  0  0  0  0  0  0  0
  -18.1638   62.7123    6.0432 H   0  0  0  0  0  0  0  0  0  0  0  0
  -17.6632   63.3310    4.4746 H   0  0  0  0  0  0  0  0  0  0  0  0
  -19.9573   62.7385    3.9764 H   0  0  0  0  0  0  0  0  0  0  0  0
  -19.4817   61.8572    2.5320 H   0  0  0  0  0  0  0  0  0  0  0  0
  -21.0006   56.8931    2.7386 H   0  0  0  0  0  0  0  0  0  0  0  0
  -21.6946   56.8857    4.3680 H   0  0  0  0  0  0  0  0  0  0  0  0
  -19.9802   60.1742    1.1417 H   0  0  0  0  0  0  0  0  0  0  0  0
  -21.5816   60.3234    0.4307 H   0  0  0  0  0  0  0  0  0  0  0  0
  -20.9357   58.7287    0.8187 H   0  0  0  0  0  0  0  0  0  0  0  0
  -17.0634   60.0985    2.6798 H   0  0  0  0  0  0  0  0  0  0  0  0
  -15.8866   61.2734    3.2753 H   0  0  0  0  0  0  0  0  0  0  0  0
  -17.3734   61.8304    2.5094 H   0  0  0  0  0  0  0  0  0  0  0  0
  -16.0380   63.7310    6.4253 H   0  0  0  0  0  0  0  0  0  0  0  0
  -15.3259   63.0338    4.9767 H   0  0  0  0  0  0  0  0  0  0  0  0
  -23.6318   60.4698    4.4298 H   0  0  0  0  0  0  0  0  0  0  0  0
  -24.6484   59.0751    4.2071 H   0  0  0  0  0  0  0  0  0  0  0  0
  -25.0639   61.7544    3.1382 H   0  0  0  0  0  0  0  0  0  0  0  0
  -26.1557   60.3526    3.0434 H   0  0  0  0  0  0  0  0  0  0  0  0
  -19.6075   55.4325    9.2544 H   0  0  0  0  0  0  0  0  0  0  0  0
  -21.0785   56.2468    8.7000 H   0  0  0  0  0  0  0  0  0  0  0  0
  -19.8463   57.1408    9.6538 H   0  0  0  0  0  0  0  0  0  0  0  0
  -15.5491   59.4576    6.9930 H   0  0  0  0  0  0  0  0  0  0  0  0
  -16.9031   57.8145    5.9572 H   0  0  0  0  0  0  0  0  0  0  0  0
  -16.7896   58.1015    4.2330 H   0  0  0  0  0  0  0  0  0  0  0  0
  -18.9455   57.1252    4.6391 H   0  0  0  0  0  0  0  0  0  0  0  0
  -18.9816   58.9398    3.0040 H   0  0  0  0  0  0  0  0  0  0  0  0
  -19.6644   60.8145    5.3970 H   0  0  0  0  0  0  0  0  0  0  0  0
  1  8  1  0  0  0  0
  1 30  1  0  0  0  0
  1 31  1  0  0  0  0
  2  3  1  0  0  0  0
  2  7  1  0  0  0  0
  2 32  1  0  0  0  0
  2 33  1  0  0  0  0
  3  5  1  0  0  0  0
  3  9  1  0  0  0  0
  3 10  1  6  0  0  0
  4  6  1  0  0  0  0
  4 11  1  6  0  0  0
  4 20  1  0  0  0  0
  4 24  1  0  0  0  0
  5  8  1  0  0  0  0
  5 23  1  0  0  0  0
  5 34  1  1  0  0  0
  6 12  1  0  0  0  0
  6 35  1  0  0  0  0
  6 36  1  0  0  0  0
  7 24  1  0  0  0  0
  7 37  1  0  0  0  0
  7 38  1  0  0  0  0
  8 39  1  0  0  0  0
  8 40  1  0  0  0  0
  9  1  1  1  0  0  0
  9 13  1  0  0  0  0
  9 26  1  0  0  0  0
 10 41  1  0  0  0  0
 10 42  1  0  0  0  0
 10 43  1  0  0  0  0
 11 44  1  0  0  0  0
 11 45  1  0  0  0  0
 11 46  1  0  0  0  0
 12 18  1  0  0  0  0
 12 47  1  0  0  0  0
 12 48  1  0  0  0  0
 13 14  1  0  0  0  0
 13 49  1  0  0  0  0
 13 50  1  0  0  0  0
 14 15  1  0  0  0  0
 14 51  1  0  0  0  0
 14 52  1  0  0  0  0
 15 25  2  0  0  0  0
 15 26  1  0  0  0  0
 16 17  1  0  0  0  0
 16 27  2  0  0  0  0
 16 29  1  0  0  0  0
 17 53  1  0  0  0  0
 17 54  1  0  0  0  0
 17 55  1  0  0  0  0
 18 19  1  0  0  0  0
 18 28  2  0  0  0  0
 19 20  2  0  0  0  0
 19 56  1  0  0  0  0
 20 21  1  0  0  0  0
 21 22  1  0  0  0  0
 21 57  1  0  0  0  0
 21 58  1  0  0  0  0
 22 23  1  0  0  0  0
 22 29  1  0  0  0  0
 22 59  1  6  0  0  0
 23 24  1  0  0  0  0
 23 60  1  6  0  0  0
 24 61  1  1  0  0  0
M  END
$$$$
