STI
 OpenBabel04051918373D

 69 73  0  0  0  0  0  0  0  0999 V2000
  -11.0632  -38.3279    4.6720 C   0  0  0  0  0  0  0  0  0  0  0  0
   -9.7571  -38.3375    5.1690 C   0  0  0  0  0  0  0  0  0  0  0  0
   -9.2839  -37.3013    5.9945 C   0  0  0  0  0  0  0  0  0  0  0  0
  -10.2162  -36.2960    6.2612 C   0  0  0  0  0  0  0  0  0  0  0  0
  -11.4939  -36.2528    5.7944 N   0  0  0  0  0  0  0  0  0  0  0  0
  -11.8870  -37.2732    5.0093 C   0  0  0  0  0  0  0  0  0  0  0  0
   -7.9111  -37.2555    6.5573 C   0  0  0  0  0  0  0  0  0  0  0  0
   -6.9359  -38.1854    6.2478 C   0  0  0  0  0  0  0  0  0  0  0  0
   -5.7166  -38.0260    6.8551 C   0  0  0  0  0  0  0  0  0  0  0  0
   -5.4427  -37.0325    7.7075 N   0  0  0  0  0  0  0  0  0  0  0  0
   -6.4216  -36.1524    7.9588 C   0  0  0  0  0  0  0  0  0  0  0  0
   -7.6484  -36.2341    7.4122 N   0  0  0  0  0  0  0  0  0  0  0  0
   -6.1779  -35.0941    8.8280 N   0  0  0  0  0  0  0  0  0  0  0  0
   -4.9837  -34.8269    9.5106 C   0  0  0  0  0  0  0  0  0  0  0  0
   -4.7074  -35.4259   10.7549 C   0  0  0  0  0  0  0  0  0  0  0  0
   -3.4998  -35.1250   11.3974 C   0  0  0  0  0  0  0  0  0  0  0  0
   -2.5995  -34.2170   10.8355 C   0  0  0  0  0  0  0  0  0  0  0  0
   -2.8848  -33.5703    9.6262 C   0  0  0  0  0  0  0  0  0  0  0  0
   -4.0838  -33.8751    8.9781 C   0  0  0  0  0  0  0  0  0  0  0  0
   -1.9218  -32.6338    9.1741 N   0  0  0  0  0  0  0  0  0  0  0  0
   -1.9312  -31.8613    8.0214 C   0  0  0  0  0  0  0  0  0  0  0  0
   -0.7955  -30.8692    7.8775 C   0  0  0  0  0  0  0  0  0  0  0  0
   -0.9191  -29.8339    6.9359 C   0  0  0  0  0  0  0  0  0  0  0  0
    0.0964  -28.8733    6.7719 C   0  0  0  0  0  0  0  0  0  0  0  0
    1.2683  -28.9263    7.5414 C   0  0  0  0  0  0  0  0  0  0  0  0
    1.3849  -29.9544    8.4872 C   0  0  0  0  0  0  0  0  0  0  0  0
    0.3804  -30.9203    8.6394 C   0  0  0  0  0  0  0  0  0  0  0  0
    2.3593  -27.8790    7.3872 C   0  0  0  0  0  0  0  0  0  0  0  0
    3.7321  -28.4325    7.2568 N   0  0  0  0  0  0  0  0  0  0  0  0
    3.8652  -29.3102    6.0762 C   0  0  0  0  0  0  0  0  0  0  0  0
    5.2893  -29.8885    5.9351 C   0  0  0  0  0  0  0  0  0  0  0  0
    6.3069  -28.7625    5.8591 N   0  3  0  0  0  0  0  0  0  0  0  0
    7.7039  -29.2742    5.6724 C   0  0  0  0  0  0  0  0  0  0  0  0
    6.1808  -27.8519    7.0697 C   0  0  0  0  0  0  0  0  0  0  0  0
    4.7277  -27.3385    7.2030 C   0  0  0  0  0  0  0  0  0  0  0  0
   -2.7768  -31.9068    7.1344 O   0  0  0  0  0  0  0  0  0  0  0  0
   -5.6370  -36.4029   11.4253 C   0  0  0  0  0  0  0  0  0  0  0  0
  -11.4258  -39.1296    4.0372 H   0  0  0  0  0  0  0  0  0  0  0  0
   -9.1298  -39.1809    4.8968 H   0  0  0  0  0  0  0  0  0  0  0  0
   -9.9575  -35.4456    6.8912 H   0  0  0  0  0  0  0  0  0  0  0  0
  -12.9105  -37.2196    4.6509 H   0  0  0  0  0  0  0  0  0  0  0  0
   -7.0868  -39.0088    5.5660 H   0  0  0  0  0  0  0  0  0  0  0  0
   -4.8968  -38.7112    6.6663 H   0  0  0  0  0  0  0  0  0  0  0  0
   -6.9464  -34.4510    8.9168 H   0  0  0  0  0  0  0  0  0  0  0  0
   -3.2537  -35.6027   12.3436 H   0  0  0  0  0  0  0  0  0  0  0  0
   -1.6714  -34.0258   11.3673 H   0  0  0  0  0  0  0  0  0  0  0  0
   -4.3414  -33.4001    8.0359 H   0  0  0  0  0  0  0  0  0  0  0  0
   -1.1624  -32.4966    9.8200 H   0  0  0  0  0  0  0  0  0  0  0  0
   -1.8205  -29.7629    6.3256 H   0  0  0  0  0  0  0  0  0  0  0  0
   -0.0523  -28.0803    6.0404 H   0  0  0  0  0  0  0  0  0  0  0  0
    2.2749  -30.0116    9.1135 H   0  0  0  0  0  0  0  0  0  0  0  0
    0.5630  -31.7105    9.3621 H   0  0  0  0  0  0  0  0  0  0  0  0
    2.3147  -27.2461    8.2847 H   0  0  0  0  0  0  0  0  0  0  0  0
    2.1366  -27.2285    6.5311 H   0  0  0  0  0  0  0  0  0  0  0  0
    3.6045  -28.7620    5.1619 H   0  0  0  0  0  0  0  0  0  0  0  0
    3.1836  -30.1634    6.1548 H   0  0  0  0  0  0  0  0  0  0  0  0
    5.3792  -30.4695    5.0118 H   0  0  0  0  0  0  0  0  0  0  0  0
    5.5563  -30.5150    6.7943 H   0  0  0  0  0  0  0  0  0  0  0  0
    8.3718  -28.4135    5.5816 H   0  0  0  0  0  0  0  0  0  0  0  0
    7.7290  -29.8623    4.7510 H   0  0  0  0  0  0  0  0  0  0  0  0
    7.9734  -29.8888    6.5355 H   0  0  0  0  0  0  0  0  0  0  0  0
    6.8736  -27.0175    6.9169 H   0  0  0  0  0  0  0  0  0  0  0  0
    6.4865  -28.4292    7.9495 H   0  0  0  0  0  0  0  0  0  0  0  0
    4.6682  -26.7359    8.1171 H   0  0  0  0  0  0  0  0  0  0  0  0
    4.5133  -26.6714    6.3573 H   0  0  0  0  0  0  0  0  0  0  0  0
   -6.5770  -36.5436   10.8854 H   0  0  0  0  0  0  0  0  0  0  0  0
   -5.8936  -36.0439   12.4286 H   0  0  0  0  0  0  0  0  0  0  0  0
   -5.1526  -37.3814   11.5137 H   0  0  0  0  0  0  0  0  0  0  0  0
    6.0729  -28.2012    5.0307 H   0  0  0  0  0  0  0  0  0  0  0  0
  1  2  2  0  0  0  0
  1  6  1  0  0  0  0
  1 38  1  0  0  0  0
  2  3  1  0  0  0  0
  2 39  1  0  0  0  0
  3  4  2  0  0  0  0
  3  7  1  0  0  0  0
  4  5  1  0  0  0  0
  4 40  1  0  0  0  0
  5  6  2  0  0  0  0
  6 41  1  0  0  0  0
  7  8  2  0  0  0  0
  7 12  1  0  0  0  0
  8  9  1  0  0  0  0
  8 42  1  0  0  0  0
  9 10  2  0  0  0  0
  9 43  1  0  0  0  0
 10 11  1  0  0  0  0
 11 12  2  0  0  0  0
 11 13  1  0  0  0  0
 13 14  1  0  0  0  0
 13 44  1  0  0  0  0
 14 15  2  0  0  0  0
 14 19  1  0  0  0  0
 15 16  1  0  0  0  0
 15 37  1  0  0  0  0
 16 17  2  0  0  0  0
 16 45  1  0  0  0  0
 17 18  1  0  0  0  0
 17 46  1  0  0  0  0
 18 19  2  0  0  0  0
 18 20  1  0  0  0  0
 19 47  1  0  0  0  0
 20 21  1  0  0  0  0
 20 48  1  0  0  0  0
 21 22  1  0  0  0  0
 21 36  2  0  0  0  0
 22 23  2  0  0  0  0
 22 27  1  0  0  0  0
 23 24  1  0  0  0  0
 23 49  1  0  0  0  0
 24 25  2  0  0  0  0
 24 50  1  0  0  0  0
 25 26  1  0  0  0  0
 25 28  1  0  0  0  0
 26 27  2  0  0  0  0
 26 51  1  0  0  0  0
 27 52  1  0  0  0  0
 28 29  1  0  0  0  0
 28 53  1  0  0  0  0
 28 54  1  0  0  0  0
 29 30  1  0  0  0  0
 29 35  1  0  0  0  0
 30 31  1  0  0  0  0
 30 55  1  0  0  0  0
 30 56  1  0  0  0  0
 31 32  1  0  0  0  0
 31 57  1  0  0  0  0
 31 58  1  0  0  0  0
 32 33  1  0  0  0  0
 32 34  1  0  0  0  0
 32 69  1  0  0  0  0
 33 59  1  0  0  0  0
 33 60  1  0  0  0  0
 33 61  1  0  0  0  0
 34 35  1  0  0  0  0
 34 62  1  0  0  0  0
 34 63  1  0  0  0  0
 35 64  1  0  0  0  0
 35 65  1  0  0  0  0
 37 66  1  0  0  0  0
 37 67  1  0  0  0  0
 37 68  1  0  0  0  0
M  CHG  1  32   1
M  END
$$$$
