TC9
 OpenBabel04051920363D

 87 93  0  0  1  0  0  0  0  0999 V2000
   37.1826  117.8160   52.1171 N   0  3  2  0  0  0  0  0  0  0  0  0
   36.8404  118.3672   50.7667 C   0  0  0  0  0  0  0  0  0  0  0  0
   38.0119  118.1377   49.8212 C   0  0  0  0  0  0  0  0  0  0  0  0
   38.8444  116.8995   50.0898 C   0  0  0  0  0  0  0  0  0  0  0  0
   38.5532  116.0300   51.1677 C   0  0  0  0  0  0  0  0  0  0  0  0
   37.3386  116.2942   52.0388 C   0  0  2  0  0  0  0  0  0  0  0  0
   39.9546  116.6459   49.2713 C   0  0  0  0  0  0  0  0  0  0  0  0
   40.7459  115.5096   49.4868 C   0  0  0  0  0  0  0  0  0  0  0  0
   40.4258  114.5993   50.5148 C   0  0  0  0  0  0  0  0  0  0  0  0
   39.3644  114.9008   51.3646 C   0  0  0  0  0  0  0  0  0  0  0  0
   41.1589  113.4252   50.6207 O   0  0  0  0  0  0  0  0  0  0  0  0
   41.1279  112.7144   51.8142 C   0  0  0  0  0  0  0  0  0  0  0  0
   42.1902  112.8682   52.6925 C   0  0  0  0  0  0  0  0  0  0  0  0
   42.2567  112.1218   53.8618 C   0  0  0  0  0  0  0  0  0  0  0  0
   41.2400  111.2159   54.1630 C   0  0  0  0  0  0  0  0  0  0  0  0
   40.1647  111.0049   53.2791 C   0  0  0  0  0  0  0  0  0  0  0  0
   40.1257  111.7667   52.0926 C   0  0  0  0  0  0  0  0  0  0  0  0
   39.0645  110.0279   53.6904 C   0  0  0  0  0  0  0  0  0  0  0  0
   38.8442  108.7278   52.8495 C   0  0  1  0  0  0  0  0  0  0  0  0
   39.7640  107.5171   53.2915 N   0  3  0  0  0  0  0  0  0  0  0  0
   39.1123  106.4312   54.1572 C   0  0  0  0  0  0  0  0  0  0  0  0
   37.8199  106.8115   54.8206 C   0  0  0  0  0  0  0  0  0  0  0  0
   36.8868  107.4840   53.8632 C   0  0  0  0  0  0  0  0  0  0  0  0
   37.3680  108.3800   52.8905 C   0  0  0  0  0  0  0  0  0  0  0  0
   35.5208  107.2392   54.0058 C   0  0  0  0  0  0  0  0  0  0  0  0
   34.6096  107.8738   53.1696 C   0  0  0  0  0  0  0  0  0  0  0  0
   35.0681  108.7892   52.2234 C   0  0  0  0  0  0  0  0  0  0  0  0
   36.4462  109.0563   52.0711 C   0  0  0  0  0  0  0  0  0  0  0  0
   36.9318  109.9249   51.0965 O   0  0  0  0  0  0  0  0  0  0  0  0
   36.6703  111.2840   51.2298 C   0  0  0  0  0  0  0  0  0  0  0  0
   36.8445  112.0819   50.0912 C   0  0  0  0  0  0  0  0  0  0  0  0
   36.6334  113.4641   50.1585 C   0  0  0  0  0  0  0  0  0  0  0  0
   36.2787  114.0719   51.3747 C   0  0  0  0  0  0  0  0  0  0  0  0
   36.1648  113.2836   52.5195 C   0  0  0  0  0  0  0  0  0  0  0  0
   36.3455  111.9028   52.4408 C   0  0  0  0  0  0  0  0  0  0  0  0
   36.0992  115.5715   51.4555 C   0  0  0  0  0  0  0  0  0  0  0  0
   41.8105  115.2016   48.6521 O   0  0  0  0  0  0  0  0  0  0  0  0
   42.5346  116.2963   48.0743 C   0  0  0  0  0  0  0  0  0  0  0  0
   43.1847  113.7638   52.4290 O   0  0  0  0  0  0  0  0  0  0  0  0
   33.2531  107.6709   53.2761 O   0  0  0  0  0  0  0  0  0  0  0  0
   32.8692  106.3705   53.7507 C   0  0  0  0  0  0  0  0  0  0  0  0
   34.1833  109.4390   51.4183 O   0  0  0  0  0  0  0  0  0  0  0  0
   36.4041  118.5168   53.1762 C   0  0  0  0  0  0  0  0  0  0  0  0
   41.0128  108.0051   54.0063 C   0  0  0  0  0  0  0  0  0  0  0  0
   40.1774  106.7904   52.0176 C   0  0  0  0  0  0  0  0  0  0  0  0
   36.6373  119.4347   50.8751 H   0  0  0  0  0  0  0  0  0  0  0  0
   35.9085  117.9019   50.4306 H   0  0  0  0  0  0  0  0  0  0  0  0
   38.6569  119.0215   49.9049 H   0  0  0  0  0  0  0  0  0  0  0  0
   37.5976  118.1030   48.8100 H   0  0  0  0  0  0  0  0  0  0  0  0
   37.5484  115.9389   53.0601 H   0  0  0  0  0  0  0  0  0  0  0  0
   40.1341  117.3294   48.4437 H   0  0  0  0  0  0  0  0  0  0  0  0
   39.0997  114.2107   52.1718 H   0  0  0  0  0  0  0  0  0  0  0  0
   43.1047  112.2363   54.5365 H   0  0  0  0  0  0  0  0  0  0  0  0
   41.3164  110.6491   55.0943 H   0  0  0  0  0  0  0  0  0  0  0  0
   39.3070  111.6622   51.3957 H   0  0  0  0  0  0  0  0  0  0  0  0
   38.1483  110.6119   53.6819 H   0  0  0  0  0  0  0  0  0  0  0  0
   39.1623  109.7696   54.7514 H   0  0  0  0  0  0  0  0  0  0  0  0
   39.1398  108.9312   51.8118 H   0  0  0  0  0  0  0  0  0  0  0  0
   39.8408  106.1275   54.9148 H   0  0  0  0  0  0  0  0  0  0  0  0
   38.9294  105.5599   53.5163 H   0  0  0  0  0  0  0  0  0  0  0  0
   37.9933  107.4497   55.6904 H   0  0  0  0  0  0  0  0  0  0  0  0
   37.3727  105.8717   55.1796 H   0  0  0  0  0  0  0  0  0  0  0  0
   35.2010  106.5498   54.7834 H   0  0  0  0  0  0  0  0  0  0  0  0
   37.1381  111.6429   49.1390 H   0  0  0  0  0  0  0  0  0  0  0  0
   36.7700  114.0686   49.2592 H   0  0  0  0  0  0  0  0  0  0  0  0
   35.9242  113.7243   53.4835 H   0  0  0  0  0  0  0  0  0  0  0  0
   36.2280  111.3251   53.3504 H   0  0  0  0  0  0  0  0  0  0  0  0
   35.8839  115.9109   50.4351 H   0  0  0  0  0  0  0  0  0  0  0  0
   35.2105  115.7992   52.0541 H   0  0  0  0  0  0  0  0  0  0  0  0
   43.3245  115.8853   47.4356 H   0  0  0  0  0  0  0  0  0  0  0  0
   43.0149  116.8921   48.8578 H   0  0  0  0  0  0  0  0  0  0  0  0
   41.9178  116.9338   47.4318 H   0  0  0  0  0  0  0  0  0  0  0  0
   42.9983  114.1469   51.5493 H   0  0  0  0  0  0  0  0  0  0  0  0
   31.7788  106.3302   53.8076 H   0  0  0  0  0  0  0  0  0  0  0  0
   33.2349  106.1535   54.7613 H   0  0  0  0  0  0  0  0  0  0  0  0
   33.2099  105.5998   53.0505 H   0  0  0  0  0  0  0  0  0  0  0  0
   33.3039  109.1503   51.6765 H   0  0  0  0  0  0  0  0  0  0  0  0
   36.4800  119.5902   52.9483 H   0  0  0  0  0  0  0  0  0  0  0  0
   36.8758  118.3521   54.1439 H   0  0  0  0  0  0  0  0  0  0  0  0
   35.3561  118.2145   53.1374 H   0  0  0  0  0  0  0  0  0  0  0  0
   41.4720  108.7598   53.3840 H   0  0  0  0  0  0  0  0  0  0  0  0
   41.6889  107.1558   54.1258 H   0  0  0  0  0  0  0  0  0  0  0  0
   40.7040  108.3657   54.9916 H   0  0  0  0  0  0  0  0  0  0  0  0
   39.2661  106.4452   51.5154 H   0  0  0  0  0  0  0  0  0  0  0  0
   40.7928  105.9378   52.3196 H   0  0  0  0  0  0  0  0  0  0  0  0
   40.7415  107.4801   51.3915 H   0  0  0  0  0  0  0  0  0  0  0  0
   38.1477  118.1160   52.3146 H   0  0  0  0  0  0  0  0  0  0  0  0
  1  2  1  0  0  0  0
  1  6  1  0  0  0  0
  1 43  1  0  0  0  0
  1 87  1  1  0  0  0
  2  3  1  0  0  0  0
  2 46  1  0  0  0  0
  2 47  1  0  0  0  0
  3  4  1  0  0  0  0
  3 48  1  0  0  0  0
  3 49  1  0  0  0  0
  4  5  2  0  0  0  0
  4  7  1  0  0  0  0
  5  6  1  0  0  0  0
  5 10  1  0  0  0  0
  6 36  1  0  0  0  0
  6 50  1  1  0  0  0
  7  8  2  0  0  0  0
  7 51  1  0  0  0  0
  8  9  1  0  0  0  0
  8 37  1  0  0  0  0
  9 10  2  0  0  0  0
  9 11  1  0  0  0  0
 10 52  1  0  0  0  0
 11 12  1  0  0  0  0
 12 13  2  0  0  0  0
 12 17  1  0  0  0  0
 13 14  1  0  0  0  0
 13 39  1  0  0  0  0
 14 15  2  0  0  0  0
 14 53  1  0  0  0  0
 15 16  1  0  0  0  0
 15 54  1  0  0  0  0
 16 17  2  0  0  0  0
 16 18  1  0  0  0  0
 17 55  1  0  0  0  0
 18 19  1  0  0  0  0
 18 56  1  0  0  0  0
 18 57  1  0  0  0  0
 19 20  1  0  0  0  0
 19 24  1  0  0  0  0
 19 58  1  6  0  0  0
 20 21  1  0  0  0  0
 20 44  1  0  0  0  0
 20 45  1  0  0  0  0
 21 22  1  0  0  0  0
 21 59  1  0  0  0  0
 21 60  1  0  0  0  0
 22 23  1  0  0  0  0
 22 61  1  0  0  0  0
 22 62  1  0  0  0  0
 23 24  2  0  0  0  0
 23 25  1  0  0  0  0
 24 28  1  0  0  0  0
 25 26  2  0  0  0  0
 25 63  1  0  0  0  0
 26 27  1  0  0  0  0
 26 40  1  0  0  0  0
 27 28  2  0  0  0  0
 27 42  1  0  0  0  0
 28 29  1  0  0  0  0
 29 30  1  0  0  0  0
 30 31  2  0  0  0  0
 30 35  1  0  0  0  0
 31 32  1  0  0  0  0
 31 64  1  0  0  0  0
 32 33  2  0  0  0  0
 32 65  1  0  0  0  0
 33 34  1  0  0  0  0
 33 36  1  0  0  0  0
 34 35  2  0  0  0  0
 34 66  1  0  0  0  0
 35 67  1  0  0  0  0
 36 68  1  0  0  0  0
 36 69  1  0  0  0  0
 37 38  1  0  0  0  0
 38 70  1  0  0  0  0
 38 71  1  0  0  0  0
 38 72  1  0  0  0  0
 39 73  1  0  0  0  0
 40 41  1  0  0  0  0
 41 74  1  0  0  0  0
 41 75  1  0  0  0  0
 41 76  1  0  0  0  0
 42 77  1  0  0  0  0
 43 78  1  0  0  0  0
 43 79  1  0  0  0  0
 43 80  1  0  0  0  0
 44 81  1  0  0  0  0
 44 82  1  0  0  0  0
 44 83  1  0  0  0  0
 45 84  1  0  0  0  0
 45 85  1  0  0  0  0
 45 86  1  0  0  0  0
M  CHG  2   1   1  20   1
M  END
$$$$
