TDZ
 OpenBabel04051919043D

 57 60  0  0  1  0  0  0  0  0999 V2000
   -5.4889   -9.6136   17.1695 C   0  0  0  0  0  0  0  0  0  0  0  0
   -6.5448   -8.5189   17.0183 C   0  0  0  0  0  0  0  0  0  0  0  0
   -7.5682   -8.4805   18.1364 C   0  0  0  0  0  0  0  0  0  0  0  0
   -8.5968   -7.4957   18.1299 C   0  0  0  0  0  0  0  0  0  0  0  0
   -8.6722   -6.4979   17.0362 C   0  0  0  0  0  0  0  0  0  0  0  0
   -9.5386   -7.4625   19.1787 C   0  0  0  0  0  0  0  0  0  0  0  0
  -10.5113   -6.4998   19.1880 O   0  0  0  0  0  0  0  0  0  0  0  0
   -9.5072   -8.3440   20.2188 C   0  0  0  0  0  0  0  0  0  0  0  0
  -10.5302   -8.2841   21.3320 C   0  0  0  0  0  0  0  0  0  0  0  0
   -8.4759   -9.3241   20.2311 C   0  0  0  0  0  0  0  0  0  0  0  0
   -8.4478  -10.2309   21.3630 C   0  0  0  0  0  0  0  0  0  0  0  0
   -7.5112   -9.3627   19.1924 C   0  0  0  0  0  0  0  0  0  0  0  0
   -6.4954  -10.2955   19.2643 O   0  0  0  0  0  0  0  0  0  0  0  0
   -5.2373   -9.9307   18.6412 C   0  0  2  0  0  0  0  0  0  0  0  0
   -4.5641   -8.7227   19.2967 C   0  0  0  0  0  0  0  0  0  0  0  0
   -4.2569  -11.1360   18.7380 C   0  0  0  0  0  0  0  0  0  0  0  0
   -3.7374  -11.4416   20.0525 O   0  0  0  0  0  0  0  0  0  0  0  0
   -4.7252  -11.8049   20.9326 C   0  0  0  0  0  0  0  0  0  0  0  0
   -5.5476  -12.8917   20.7356 C   0  0  0  0  0  0  0  0  0  0  0  0
   -6.5570  -13.1791   21.6598 C   0  0  0  0  0  0  0  0  0  0  0  0
   -4.8885  -11.0088   22.0704 C   0  0  0  0  0  0  0  0  0  0  0  0
   -5.9044  -11.3002   22.9912 C   0  0  0  0  0  0  0  0  0  0  0  0
   -6.7700  -12.3758   22.7915 C   0  0  0  0  0  0  0  0  0  0  0  0
   -7.9064  -12.6262   23.7906 C   0  0  0  0  0  0  0  0  0  0  0  0
   -9.2053  -13.3202   23.3428 C   0  0  1  0  0  0  0  0  0  0  0  0
   -9.8596  -12.9317   21.7157 S   0  0  0  0  0  0  0  0  0  0  0  0
   -9.6205  -14.5370   21.1123 C   0  0  0  0  0  0  0  0  0  0  0  0
   -9.8151  -14.7893   19.9360 O   0  0  0  0  0  0  0  0  0  0  0  0
   -9.2874  -15.3647   22.0621 N   0  0  0  0  0  0  0  0  0  0  0  0
   -9.0630  -14.8282   23.2954 C   0  0  0  0  0  0  0  0  0  0  0  0
   -8.7600  -15.4842   24.2723 O   0  0  0  0  0  0  0  0  0  0  0  0
   -4.5580   -9.2902   16.6808 H   0  0  0  0  0  0  0  0  0  0  0  0
   -5.8350  -10.5149   16.6502 H   0  0  0  0  0  0  0  0  0  0  0  0
   -7.0601   -8.6697   16.0645 H   0  0  0  0  0  0  0  0  0  0  0  0
   -6.0259   -7.5523   16.9771 H   0  0  0  0  0  0  0  0  0  0  0  0
   -7.8801   -6.6436   16.3049 H   0  0  0  0  0  0  0  0  0  0  0  0
   -8.5679   -5.4859   17.4368 H   0  0  0  0  0  0  0  0  0  0  0  0
   -9.6248   -6.5953   16.5100 H   0  0  0  0  0  0  0  0  0  0  0  0
  -11.0450   -6.6341   18.3643 H   0  0  0  0  0  0  0  0  0  0  0  0
  -11.2465   -7.4722   21.1648 H   0  0  0  0  0  0  0  0  0  0  0  0
  -10.0447   -8.0970   22.2954 H   0  0  0  0  0  0  0  0  0  0  0  0
  -11.1021   -9.2159   21.3884 H   0  0  0  0  0  0  0  0  0  0  0  0
   -9.2547  -10.1036   22.0795 H   0  0  0  0  0  0  0  0  0  0  0  0
   -7.5262  -10.1143   21.9079 H   0  0  0  0  0  0  0  0  0  0  0  0
   -8.4833  -11.2297   20.9393 H   0  0  0  0  0  0  0  0  0  0  0  0
   -4.3668   -8.9046   20.3520 H   0  0  0  0  0  0  0  0  0  0  0  0
   -5.1917   -7.8307   19.2334 H   0  0  0  0  0  0  0  0  0  0  0  0
   -3.6123   -8.4982   18.7999 H   0  0  0  0  0  0  0  0  0  0  0  0
   -3.3761  -10.9140   18.1164 H   0  0  0  0  0  0  0  0  0  0  0  0
   -4.7364  -12.0286   18.3309 H   0  0  0  0  0  0  0  0  0  0  0  0
   -5.4351  -13.5317   19.8598 H   0  0  0  0  0  0  0  0  0  0  0  0
   -7.1835  -14.0303   21.4601 H   0  0  0  0  0  0  0  0  0  0  0  0
   -4.2601  -10.1465   22.2285 H   0  0  0  0  0  0  0  0  0  0  0  0
   -6.0706  -10.6182   23.8239 H   0  0  0  0  0  0  0  0  0  0  0  0
   -8.1661  -11.6447   24.2394 H   0  0  0  0  0  0  0  0  0  0  0  0
   -7.4535  -13.2086   24.6115 H   0  0  0  0  0  0  0  0  0  0  0  0
   -9.9977  -13.0403   24.0482 H   0  0  0  0  0  0  0  0  0  0  0  0
  1  2  1  0  0  0  0
  1 14  1  0  0  0  0
  1 32  1  0  0  0  0
  1 33  1  0  0  0  0
  2  3  1  0  0  0  0
  2 34  1  0  0  0  0
  2 35  1  0  0  0  0
  3  4  2  0  0  0  0
  3 12  1  0  0  0  0
  4  5  1  0  0  0  0
  4  6  1  0  0  0  0
  5 36  1  0  0  0  0
  5 37  1  0  0  0  0
  5 38  1  0  0  0  0
  6  7  1  0  0  0  0
  6  8  2  0  0  0  0
  7 39  1  0  0  0  0
  8  9  1  0  0  0  0
  8 10  1  0  0  0  0
  9 40  1  0  0  0  0
  9 41  1  0  0  0  0
  9 42  1  0  0  0  0
 10 11  1  0  0  0  0
 10 12  2  0  0  0  0
 11 43  1  0  0  0  0
 11 44  1  0  0  0  0
 11 45  1  0  0  0  0
 12 13  1  0  0  0  0
 13 14  1  0  0  0  0
 14 15  1  1  0  0  0
 14 16  1  0  0  0  0
 15 46  1  0  0  0  0
 15 47  1  0  0  0  0
 15 48  1  0  0  0  0
 16 17  1  0  0  0  0
 16 49  1  0  0  0  0
 16 50  1  0  0  0  0
 17 18  1  0  0  0  0
 18 19  2  0  0  0  0
 18 21  1  0  0  0  0
 19 20  1  0  0  0  0
 19 51  1  0  0  0  0
 20 23  2  0  0  0  0
 20 52  1  0  0  0  0
 21 22  2  0  0  0  0
 21 53  1  0  0  0  0
 22 23  1  0  0  0  0
 22 54  1  0  0  0  0
 23 24  1  0  0  0  0
 24 25  1  0  0  0  0
 24 55  1  0  0  0  0
 24 56  1  0  0  0  0
 25 26  1  0  0  0  0
 25 30  1  0  0  0  0
 25 57  1  1  0  0  0
 26 27  1  0  0  0  0
 27 28  2  0  0  0  0
 27 29  1  0  0  0  0
 29 30  1  0  0  0  0
 30 31  2  0  0  0  0
M  END
$$$$
