TF4
 OpenBabel04051918583D

  7  6  0  0  0  0  0  0  0  0999 V2000
    0.6004   38.7859   -9.6727 C   0  0  0  0  0  0  0  0  0  0  0  0
    2.0284   38.4746   -9.2843 C   0  0  0  0  0  0  0  0  0  0  0  0
    2.8596   39.4358   -9.2593 O   0  0  0  0  0  0  0  0  0  0  0  0
    0.0218   37.5907  -10.8903 Cl  0  0  0  0  0  0  0  0  0  0  0  0
    0.4101   40.4862  -10.2155 Cl  0  0  0  0  0  0  0  0  0  0  0  0
    2.2754   37.2558   -8.9678 O   0  0  0  0  0  0  0  0  0  0  0  0
   -0.0808   38.6748   -8.8056 H   0  0  0  0  0  0  0  0  0  0  0  0
  1  2  1  0  0  0  0
  1  4  1  0  0  0  0
  1  5  1  0  0  0  0
  1  7  1  0  0  0  0
  2  3  2  0  0  0  0
  2  6  1  0  0  0  0
M  END
$$$$
