TLD
 OpenBabel04051920493D

 15 15  0  0  0  0  0  0  0  0999 V2000
   18.4596   -5.9757   26.0441 C   0  0  0  0  0  0  0  0  0  0  0  0
   17.7630   -5.4890   24.9207 C   0  0  0  0  0  0  0  0  0  0  0  0
   17.9185   -4.1252   24.5608 C   0  0  0  0  0  0  0  0  0  0  0  0
   18.7650   -3.3092   25.3442 C   0  0  0  0  0  0  0  0  0  0  0  0
   19.4555   -3.8014   26.4661 C   0  0  0  0  0  0  0  0  0  0  0  0
   19.2953   -5.1421   26.8111 C   0  0  0  0  0  0  0  0  0  0  0  0
   20.3429   -2.8979   27.2772 C   0  0  0  0  0  0  0  0  0  0  0  0
   16.7796   -6.6929   24.1173 S   0  0  0  0  0  0  0  0  0  0  0  0
   17.1586   -3.2966   23.2220 S   0  0  0  0  0  0  0  0  0  0  0  0
   18.3547   -7.0169   26.3337 H   0  0  0  0  0  0  0  0  0  0  0  0
   18.8913   -2.2645   25.0710 H   0  0  0  0  0  0  0  0  0  0  0  0
   19.8054   -5.5687   27.6670 H   0  0  0  0  0  0  0  0  0  0  0  0
   20.3577   -1.8834   26.8694 H   0  0  0  0  0  0  0  0  0  0  0  0
   21.3677   -3.2754   27.2749 H   0  0  0  0  0  0  0  0  0  0  0  0
   19.9791   -2.8392   28.3060 H   0  0  0  0  0  0  0  0  0  0  0  0
  1  2  2  0  0  0  0
  1  6  1  0  0  0  0
  1 10  1  0  0  0  0
  2  3  1  0  0  0  0
  2  8  1  0  0  0  0
  3  4  2  0  0  0  0
  3  9  1  0  0  0  0
  4  5  1  0  0  0  0
  4 11  1  0  0  0  0
  5  6  2  0  0  0  0
  5  7  1  0  0  0  0
  6 12  1  0  0  0  0
  7 13  1  0  0  0  0
  7 14  1  0  0  0  0
  7 15  1  0  0  0  0
M  END
$$$$
