TLM
 OpenBabel04051919363D

 27 27  0  0  1  0  0  0  0  0999 V2000
   38.2944   70.7010   60.5138 S   0  0  0  0  0  0  0  0  0  0  0  0
   38.4647   71.2798   62.1258 C   0  0  0  0  0  0  0  0  0  0  0  0
   39.6218   72.0942   62.3305 C   0  0  0  0  0  0  0  0  0  0  0  0
   40.3589   72.2972   61.2372 C   0  0  0  0  0  0  0  0  0  0  0  0
   39.7641   71.7003   59.9433 C   0  0  1  0  0  0  0  0  0  0  0  0
   40.7659   70.7826   59.2515 C   0  0  0  0  0  0  0  0  0  0  0  0
   40.5981   69.8601   58.2889 C   0  0  0  0  0  0  0  0  0  0  0  0
   41.7516   69.1047   57.8055 C   0  0  0  0  0  0  0  0  0  0  0  0
   41.7146   68.1451   56.8726 C   0  0  0  0  0  0  0  0  0  0  0  0
   37.6733   71.0190   62.9853 O   0  0  0  0  0  0  0  0  0  0  0  0
   39.9249   72.6492   63.6527 C   0  0  0  0  0  0  0  0  0  0  0  0
   41.4446   72.9235   61.1208 O   0  0  0  0  0  0  0  0  0  0  0  0
   39.2177   72.8497   59.0800 C   0  0  0  0  0  0  0  0  0  0  0  0
   39.2476   69.6020   57.6976 C   0  0  0  0  0  0  0  0  0  0  0  0
   41.7806   70.9410   59.6229 H   0  0  0  0  0  0  0  0  0  0  0  0
   42.7274   69.3373   58.2397 H   0  0  0  0  0  0  0  0  0  0  0  0
   42.6236   67.6297   56.5690 H   0  0  0  0  0  0  0  0  0  0  0  0
   40.7806   67.8622   56.4034 H   0  0  0  0  0  0  0  0  0  0  0  0
   39.1836   72.3358   64.3892 H   0  0  0  0  0  0  0  0  0  0  0  0
   39.9152   73.7406   63.5894 H   0  0  0  0  0  0  0  0  0  0  0  0
   40.9098   72.3103   63.9742 H   0  0  0  0  0  0  0  0  0  0  0  0
   40.0608   73.4533   58.7204 H   0  0  0  0  0  0  0  0  0  0  0  0
   38.5575   73.5183   59.6629 H   0  0  0  0  0  0  0  0  0  0  0  0
   38.6552   72.4974   58.2097 H   0  0  0  0  0  0  0  0  0  0  0  0
   38.4811   70.2400   58.1339 H   0  0  0  0  0  0  0  0  0  0  0  0
   38.9442   68.5640   57.8645 H   0  0  0  0  0  0  0  0  0  0  0  0
   39.2472   69.8182   56.6274 H   0  0  0  0  0  0  0  0  0  0  0  0
  1  2  1  0  0  0  0
  1  5  1  0  0  0  0
  2  3  1  0  0  0  0
  2 10  2  0  0  0  0
  3  4  2  0  0  0  0
  3 11  1  0  0  0  0
  4  5  1  0  0  0  0
  4 12  1  0  0  0  0
  5  6  1  6  0  0  0
  5 13  1  0  0  0  0
  6  7  2  0  0  0  0
  6 15  1  0  0  0  0
  7  8  1  0  0  0  0
  7 14  1  0  0  0  0
  8  9  2  0  0  0  0
  8 16  1  0  0  0  0
  9 17  1  0  0  0  0
  9 18  1  0  0  0  0
 11 19  1  0  0  0  0
 11 20  1  0  0  0  0
 11 21  1  0  0  0  0
 13 22  1  0  0  0  0
 13 23  1  0  0  0  0
 13 24  1  0  0  0  0
 14 25  1  0  0  0  0
 14 26  1  0  0  0  0
 14 27  1  0  0  0  0
M  END
$$$$
