TPO
 OpenBabel04051919533D

 20 19  0  0  1  0  0  0  0  0999 V2000
   20.2407   15.2723   54.6141 N   0  3  0  0  0  0  0  0  0  0  0  0
   18.8074   15.3777   54.0863 C   0  0  1  0  0  0  0  0  0  0  0  0
   17.8340   15.1978   55.2351 C   0  0  1  0  0  0  0  0  0  0  0  0
   17.8967   13.7665   55.7607 C   0  0  0  0  0  0  0  0  0  0  0  0
   18.2309   16.0958   56.2670 O   0  0  0  0  0  0  0  0  0  0  0  0
   17.0719   16.5908   57.3232 P   0  0  0  0  0  0  0  0  0  0  0  0
   17.0274   15.4287   58.3067 O   0  0  0  0  0  0  0  0  0  0  0  0
   15.8274   16.7500   56.4933 O   0  0  0  0  0  0  0  0  0  0  0  0
   17.6683   17.8708   57.8842 O   0  0  0  0  0  0  0  0  0  0  0  0
   18.6132   16.7203   53.3153 C   0  0  0  0  0  0  0  0  0  0  0  0
   19.6190   17.4963   53.4621 O   0  0  0  0  0  0  0  0  0  0  0  0
   17.7304   16.7121   52.4146 O   0  0  0  0  0  0  0  0  0  0  0  0
   20.8728   15.5138   53.8437 H   0  0  0  0  0  0  0  0  0  0  0  0
   20.2662   16.0873   55.2546 H   0  0  0  0  0  0  0  0  0  0  0  0
   18.7171   14.5683   53.3495 H   0  0  0  0  0  0  0  0  0  0  0  0
   16.8130   15.4063   54.8757 H   0  0  0  0  0  0  0  0  0  0  0  0
   17.1773   13.6035   56.5761 H   0  0  0  0  0  0  0  0  0  0  0  0
   18.8816   13.5137   56.1820 H   0  0  0  0  0  0  0  0  0  0  0  0
   17.6733   13.0392   54.9808 H   0  0  0  0  0  0  0  0  0  0  0  0
   20.4438   14.4239   55.1266 H   0  0  0  0  0  0  0  0  0  0  0  0
  1  2  1  0  0  0  0
  1 13  1  0  0  0  0
  1 14  1  0  0  0  0
  1 20  1  0  0  0  0
  2  3  1  0  0  0  0
  2 10  1  0  0  0  0
  2 15  1  6  0  0  0
  3  4  1  0  0  0  0
  3  5  1  0  0  0  0
  3 16  1  6  0  0  0
  4 17  1  0  0  0  0
  4 18  1  0  0  0  0
  4 19  1  0  0  0  0
  5  6  1  0  0  0  0
  6  7  2  0  0  0  0
  6  8  1  0  0  0  0
  6  9  1  0  0  0  0
 10 11  2  0  0  0  0
 10 12  1  0  0  0  0
M  CHG  1   1   1
M  END
$$$$
