TPV
 OpenBabel04051918343D

 74 77  0  0  1  0  0  0  0  0999 V2000
   13.6501   22.0266   16.5629 O   0  0  0  0  0  0  0  0  0  0  0  0
   12.4723   21.4086   16.7772 C   0  0  0  0  0  0  0  0  0  0  0  0
   12.5063   20.0771   17.5026 C   0  0  0  0  0  0  0  0  0  0  0  0
   13.6778   19.4757   17.8144 C   0  0  0  0  0  0  0  0  0  0  0  0
   14.9879   20.1464   17.4588 C   0  0  0  0  0  0  0  0  0  0  0  0
   14.8668   21.6636   17.2571 C   0  0  2  0  0  0  0  0  0  0  0  0
   11.4207   21.9041   16.3708 O   0  0  0  0  0  0  0  0  0  0  0  0
   13.9183   18.3536   18.3571 O   0  0  0  0  0  0  0  0  0  0  0  0
   14.8289   22.2751   18.6835 C   0  0  0  0  0  0  0  0  0  0  0  0
   15.2027   23.7388   18.8661 C   0  0  0  0  0  0  0  0  0  0  0  0
   15.1787   24.0500   20.3572 C   0  0  0  0  0  0  0  0  0  0  0  0
   16.0544   22.2047   16.4027 C   0  0  0  0  0  0  0  0  0  0  0  0
   16.0928   21.7642   14.9236 C   0  0  0  0  0  0  0  0  0  0  0  0
   17.2057   22.4827   14.1746 C   0  0  0  0  0  0  0  0  0  0  0  0
   16.9332   23.6015   13.3770 C   0  0  0  0  0  0  0  0  0  0  0  0
   17.9719   24.2768   12.7273 C   0  0  0  0  0  0  0  0  0  0  0  0
   19.2961   23.8640   12.8919 C   0  0  0  0  0  0  0  0  0  0  0  0
   19.5798   22.7589   13.6894 C   0  0  0  0  0  0  0  0  0  0  0  0
   18.5390   22.0632   14.3093 C   0  0  0  0  0  0  0  0  0  0  0  0
   11.1297   19.4273   17.7221 C   0  0  2  0  0  0  0  0  0  0  0  0
   10.8885   18.7337   19.0896 C   0  0  0  0  0  0  0  0  0  0  0  0
   11.0642   19.6638   20.2770 C   0  0  0  0  0  0  0  0  0  0  0  0
   10.7310   18.4592   16.6014 C   0  0  0  0  0  0  0  0  0  0  0  0
   11.6682   17.8479   15.7543 C   0  0  0  0  0  0  0  0  0  0  0  0
   11.2664   16.9687   14.7528 C   0  0  0  0  0  0  0  0  0  0  0  0
    9.9210   16.6795   14.5922 C   0  0  0  0  0  0  0  0  0  0  0  0
    8.9854   17.2725   15.4295 C   0  0  0  0  0  0  0  0  0  0  0  0
    7.6251   16.9859   15.2238 N   0  0  0  0  0  0  0  0  0  0  0  0
    9.3744   18.1537   16.4282 C   0  0  0  0  0  0  0  0  0  0  0  0
    7.0083   15.5597   15.8327 S   0  0  0  0  0  0  0  0  0  0  0  0
    7.8629   14.4505   15.4664 O   0  0  0  0  0  0  0  0  0  0  0  0
    5.5965   15.5431   15.4761 O   0  0  0  0  0  0  0  0  0  0  0  0
    7.1009   15.8544   17.5907 C   0  0  0  0  0  0  0  0  0  0  0  0
    8.2025   15.3946   18.2354 N   0  0  0  0  0  0  0  0  0  0  0  0
    8.2946   15.7077   19.5454 C   0  0  0  0  0  0  0  0  0  0  0  0
    7.3257   16.4322   20.2285 C   0  0  0  0  0  0  0  0  0  0  0  0
    6.2143   16.8965   19.5148 C   0  0  0  0  0  0  0  0  0  0  0  0
    6.0967   16.6125   18.1691 C   0  0  0  0  0  0  0  0  0  0  0  0
    7.5061   16.8119   21.6612 C   0  0  0  0  0  0  0  0  0  0  0  0
    7.9629   15.8077   22.4554 F   0  0  0  0  0  0  0  0  0  0  0  0
    6.3388   17.2288   22.2351 F   0  0  0  0  0  0  0  0  0  0  0  0
    8.3743   17.8452   21.7979 F   0  0  0  0  0  0  0  0  0  0  0  0
   15.4159   19.6699   16.5745 H   0  0  0  0  0  0  0  0  0  0  0  0
   15.7215   19.9695   18.2672 H   0  0  0  0  0  0  0  0  0  0  0  0
   15.5018   21.7052   19.3372 H   0  0  0  0  0  0  0  0  0  0  0  0
   13.8152   22.1509   19.0810 H   0  0  0  0  0  0  0  0  0  0  0  0
   14.4959   24.3856   18.3387 H   0  0  0  0  0  0  0  0  0  0  0  0
   16.2110   23.9363   18.4886 H   0  0  0  0  0  0  0  0  0  0  0  0
   15.4454   25.0926   20.5404 H   0  0  0  0  0  0  0  0  0  0  0  0
   15.8908   23.4122   20.8950 H   0  0  0  0  0  0  0  0  0  0  0  0
   14.1824   23.8632   20.7713 H   0  0  0  0  0  0  0  0  0  0  0  0
   17.0031   21.9202   16.8752 H   0  0  0  0  0  0  0  0  0  0  0  0
   16.0097   23.3006   16.3886 H   0  0  0  0  0  0  0  0  0  0  0  0
   15.1342   21.9634   14.4286 H   0  0  0  0  0  0  0  0  0  0  0  0
   16.2655   20.6851   14.8407 H   0  0  0  0  0  0  0  0  0  0  0  0
   15.9093   23.9531   13.2590 H   0  0  0  0  0  0  0  0  0  0  0  0
   17.7499   25.1305   12.0931 H   0  0  0  0  0  0  0  0  0  0  0  0
   20.1012   24.4001   12.3986 H   0  0  0  0  0  0  0  0  0  0  0  0
   20.6095   22.4365   13.8293 H   0  0  0  0  0  0  0  0  0  0  0  0
   18.7716   21.1861   14.9089 H   0  0  0  0  0  0  0  0  0  0  0  0
   10.3782   20.2280   17.6786 H   0  0  0  0  0  0  0  0  0  0  0  0
   11.5408   17.8639   19.2093 H   0  0  0  0  0  0  0  0  0  0  0  0
    9.8672   18.3324   19.1343 H   0  0  0  0  0  0  0  0  0  0  0  0
   10.8839   19.1205   21.2105 H   0  0  0  0  0  0  0  0  0  0  0  0
   10.3569   20.4970   20.2257 H   0  0  0  0  0  0  0  0  0  0  0  0
   12.0785   20.0669   20.3142 H   0  0  0  0  0  0  0  0  0  0  0  0
   12.7316   18.0456   15.8704 H   0  0  0  0  0  0  0  0  0  0  0  0
   12.0124   16.5144   14.1088 H   0  0  0  0  0  0  0  0  0  0  0  0
    9.6040   15.9887   13.8194 H   0  0  0  0  0  0  0  0  0  0  0  0
    6.9911   17.6823   14.8527 H   0  0  0  0  0  0  0  0  0  0  0  0
    8.6411   18.6032   17.0902 H   0  0  0  0  0  0  0  0  0  0  0  0
    9.2028   15.3631   20.0373 H   0  0  0  0  0  0  0  0  0  0  0  0
    5.4525   17.4976   20.0058 H   0  0  0  0  0  0  0  0  0  0  0  0
    5.2647   16.9919   17.5854 H   0  0  0  0  0  0  0  0  0  0  0  0
  1  2  1  0  0  0  0
  1  6  1  0  0  0  0
  2  3  1  0  0  0  0
  2  7  2  0  0  0  0
  3  4  2  0  0  0  0
  3 20  1  0  0  0  0
  4  5  1  0  0  0  0
  4  8  1  0  0  0  0
  5  6  1  0  0  0  0
  5 43  1  0  0  0  0
  5 44  1  0  0  0  0
  6  9  1  1  0  0  0
  6 12  1  0  0  0  0
  9 10  1  0  0  0  0
  9 45  1  0  0  0  0
  9 46  1  0  0  0  0
 10 11  1  0  0  0  0
 10 47  1  0  0  0  0
 10 48  1  0  0  0  0
 11 49  1  0  0  0  0
 11 50  1  0  0  0  0
 11 51  1  0  0  0  0
 12 13  1  0  0  0  0
 12 52  1  0  0  0  0
 12 53  1  0  0  0  0
 13 14  1  0  0  0  0
 13 54  1  0  0  0  0
 13 55  1  0  0  0  0
 14 15  2  0  0  0  0
 14 19  1  0  0  0  0
 15 16  1  0  0  0  0
 15 56  1  0  0  0  0
 16 17  2  0  0  0  0
 16 57  1  0  0  0  0
 17 18  1  0  0  0  0
 17 58  1  0  0  0  0
 18 19  2  0  0  0  0
 18 59  1  0  0  0  0
 19 60  1  0  0  0  0
 20 21  1  0  0  0  0
 20 23  1  0  0  0  0
 20 61  1  6  0  0  0
 21 22  1  0  0  0  0
 21 62  1  0  0  0  0
 21 63  1  0  0  0  0
 22 64  1  0  0  0  0
 22 65  1  0  0  0  0
 22 66  1  0  0  0  0
 23 24  2  0  0  0  0
 23 29  1  0  0  0  0
 24 25  1  0  0  0  0
 24 67  1  0  0  0  0
 25 26  2  0  0  0  0
 25 68  1  0  0  0  0
 26 27  1  0  0  0  0
 26 69  1  0  0  0  0
 27 28  1  0  0  0  0
 27 29  2  0  0  0  0
 28 30  1  0  0  0  0
 28 70  1  0  0  0  0
 29 71  1  0  0  0  0
 30 31  2  0  0  0  0
 30 32  2  0  0  0  0
 30 33  1  0  0  0  0
 33 34  2  0  0  0  0
 33 38  1  0  0  0  0
 34 35  1  0  0  0  0
 35 36  2  0  0  0  0
 35 72  1  0  0  0  0
 36 37  1  0  0  0  0
 36 39  1  0  0  0  0
 37 38  2  0  0  0  0
 37 73  1  0  0  0  0
 38 74  1  0  0  0  0
 39 40  1  0  0  0  0
 39 41  1  0  0  0  0
 39 42  1  0  0  0  0
M  END
$$$$
