TTZ
 OpenBabel04051918253D

 48 50  0  0  1  0  0  0  0  0999 V2000
   18.1042   51.2627   13.5562 O   0  0  0  0  0  0  0  0  0  0  0  0
   19.2217   51.0146   14.3941 C   0  0  0  0  0  0  0  0  0  0  0  0
   19.8242   49.6032   14.2610 C   0  0  1  0  0  0  0  0  0  0  0  0
   20.8194   49.4941   15.3097 O   0  0  0  0  0  0  0  0  0  0  0  0
   18.8338   48.4158   14.4214 C   0  0  1  0  0  0  0  0  0  0  0  0
   17.4592   48.7677   14.3769 O   0  0  0  0  0  0  0  0  0  0  0  0
   19.0901   47.4754   13.2274 C   0  0  2  0  0  0  0  0  0  0  0  0
   19.0507   46.1151   13.6270 O   0  0  0  0  0  0  0  0  0  0  0  0
   20.4734   47.8339   12.6964 C   0  0  1  0  0  0  0  0  0  0  0  0
   20.4602   47.6660   10.8718 S   0  0  0  0  0  0  0  0  0  0  0  0
   20.5965   49.3368   12.9413 C   0  0  1  0  0  0  0  0  0  0  0  0
   20.0171   50.0215   11.7603 N   0  0  0  0  0  0  0  0  0  0  0  0
   19.8169   49.2486   10.7006 C   0  0  0  0  0  0  0  0  0  0  0  0
   19.1260   49.5685    9.6375 N   0  0  0  0  0  0  0  0  0  0  0  0
   18.2577   50.7437    9.5427 C   0  0  2  0  0  0  0  0  0  0  0  0
   16.7726   50.3395    9.5694 C   0  0  2  0  0  0  0  0  0  0  0  0
   16.5658   49.4723   10.6830 O   0  0  0  0  0  0  0  0  0  0  0  0
   18.6431   51.5145    8.4302 O   0  0  0  0  0  0  0  0  0  0  0  0
   18.2379   51.0085    7.1528 C   0  0  2  0  0  0  0  0  0  0  0  0
   18.6497   52.0571    6.1097 C   0  0  0  0  0  0  0  0  0  0  0  0
   20.0722   52.1918    6.1077 O   0  0  0  0  0  0  0  0  0  0  0  0
   16.7287   50.7195    7.0954 C   0  0  1  0  0  0  0  0  0  0  0  0
   16.3912   50.1244    5.8455 O   0  0  0  0  0  0  0  0  0  0  0  0
   16.3613   49.7433    8.2202 C   0  0  2  0  0  0  0  0  0  0  0  0
   14.9514   49.5048    8.2042 O   0  0  0  0  0  0  0  0  0  0  0  0
   18.3602   51.6162   12.6975 H   0  0  0  0  0  0  0  0  0  0  0  0
   18.8837   51.1637   15.4210 H   0  0  0  0  0  0  0  0  0  0  0  0
   19.9825   51.7911   14.2185 H   0  0  0  0  0  0  0  0  0  0  0  0
   20.3810   49.5999   16.1750 H   0  0  0  0  0  0  0  0  0  0  0  0
   19.0006   47.8819   15.3657 H   0  0  0  0  0  0  0  0  0  0  0  0
   17.2487   49.3978   15.0923 H   0  0  0  0  0  0  0  0  0  0  0  0
   18.2935   47.6149   12.4838 H   0  0  0  0  0  0  0  0  0  0  0  0
   19.0620   45.5496   12.8356 H   0  0  0  0  0  0  0  0  0  0  0  0
   21.2736   47.2479   13.1602 H   0  0  0  0  0  0  0  0  0  0  0  0
   21.6495   49.6411   13.0120 H   0  0  0  0  0  0  0  0  0  0  0  0
   19.1354   48.8560    8.9219 H   0  0  0  0  0  0  0  0  0  0  0  0
   18.4278   51.3714   10.4191 H   0  0  0  0  0  0  0  0  0  0  0  0
   16.1689   51.2339    9.7409 H   0  0  0  0  0  0  0  0  0  0  0  0
   16.5242   48.5414   10.3888 H   0  0  0  0  0  0  0  0  0  0  0  0
   18.8062   50.0929    6.9501 H   0  0  0  0  0  0  0  0  0  0  0  0
   18.2365   53.0367    6.3684 H   0  0  0  0  0  0  0  0  0  0  0  0
   18.3251   51.7911    5.1028 H   0  0  0  0  0  0  0  0  0  0  0  0
   20.4482   51.3982    5.6886 H   0  0  0  0  0  0  0  0  0  0  0  0
   16.1570   51.6494    7.2026 H   0  0  0  0  0  0  0  0  0  0  0  0
   15.4361   50.2837    5.6940 H   0  0  0  0  0  0  0  0  0  0  0  0
   16.8322   48.7672    8.0639 H   0  0  0  0  0  0  0  0  0  0  0  0
   14.7319   49.0242    7.3855 H   0  0  0  0  0  0  0  0  0  0  0  0
   19.9435   51.0085   11.6704 H   0  0  0  0  0  0  0  0  0  0  0  0
  1  2  1  0  0  0  0
  1 26  1  0  0  0  0
  2 27  1  0  0  0  0
  2 28  1  0  0  0  0
  3  2  1  1  0  0  0
  3  4  1  0  0  0  0
  3  5  1  0  0  0  0
  3 11  1  0  0  0  0
  4 29  1  0  0  0  0
  5  6  1  0  0  0  0
  5  7  1  0  0  0  0
  5 30  1  1  0  0  0
  6 31  1  0  0  0  0
  7  8  1  0  0  0  0
  7  9  1  0  0  0  0
  7 32  1  6  0  0  0
  8 33  1  0  0  0  0
  9 10  1  0  0  0  0
  9 11  1  0  0  0  0
  9 34  1  1  0  0  0
 10 13  1  0  0  0  0
 11 12  1  0  0  0  0
 11 35  1  1  0  0  0
 12 13  2  0  0  0  0
 12 48  1  0  0  0  0
 13 14  1  0  0  0  0
 14 15  1  0  0  0  0
 14 36  1  0  0  0  0
 15 16  1  0  0  0  0
 15 18  1  0  0  0  0
 15 37  1  1  0  0  0
 16 17  1  0  0  0  0
 16 24  1  0  0  0  0
 16 38  1  1  0  0  0
 17 39  1  0  0  0  0
 18 19  1  0  0  0  0
 19 20  1  0  0  0  0
 19 22  1  0  0  0  0
 19 40  1  6  0  0  0
 20 21  1  0  0  0  0
 20 41  1  0  0  0  0
 20 42  1  0  0  0  0
 21 43  1  0  0  0  0
 22 23  1  0  0  0  0
 22 24  1  0  0  0  0
 22 44  1  1  0  0  0
 23 45  1  0  0  0  0
 24 25  1  0  0  0  0
 24 46  1  6  0  0  0
 25 47  1  0  0  0  0
M  END
$$$$
