UBC
 OpenBabel04051917533D

 38 39  0  0  1  0  0  0  0  0999 V2000
   -1.2763   -6.6168   14.3527 O   0  0  0  0  0  0  0  0  0  0  0  0
   -1.6019   -7.3104   15.3666 C   0  0  0  0  0  0  0  0  0  0  0  0
   -1.6579   -8.5788   15.4185 O   0  0  0  0  0  0  0  0  0  0  0  0
   -1.9363   -6.5556   16.6379 C   0  0  0  0  0  0  0  0  0  0  0  0
   -1.5038   -7.0878   17.8687 C   0  0  0  0  0  0  0  0  0  0  0  0
   -1.7476   -6.4237   19.0694 C   0  0  0  0  0  0  0  0  0  0  0  0
   -2.4204   -5.2077   19.0596 C   0  0  0  0  0  0  0  0  0  0  0  0
   -2.8566   -4.6631   17.8534 C   0  0  0  0  0  0  0  0  0  0  0  0
   -2.6522   -5.3331   16.6327 C   0  0  0  0  0  0  0  0  0  0  0  0
   -3.1424   -4.7334   15.3221 C   0  0  0  0  0  0  0  0  0  0  0  0
   -4.3090   -3.8513   15.4672 N   0  3  0  0  0  0  0  0  0  0  0  0
   -5.5660   -4.4377   15.5938 C   0  0  0  0  0  0  0  0  0  0  0  0
   -5.7778   -5.6438   15.5327 O   0  0  0  0  0  0  0  0  0  0  0  0
   -4.0882   -2.4837   15.4209 C   0  0  0  0  0  0  0  0  0  0  0  0
   -3.0129   -1.9278   15.2695 O   0  0  0  0  0  0  0  0  0  0  0  0
   -5.2767   -1.6290   15.5509 C   0  0  0  0  0  0  0  0  0  0  0  0
   -6.4771   -2.1787   15.6998 C   0  0  0  0  0  0  0  0  0  0  0  0
   -6.6454   -3.5412   15.7146 N   0  3  0  0  0  0  0  0  0  0  0  0
   -8.0132   -4.1061   15.7727 C   0  0  0  0  0  0  0  0  0  0  0  0
   -8.4834   -4.5633   14.3876 C   0  0  2  0  0  0  0  0  0  0  0  0
   -8.2184   -3.4455   13.3724 N   0  3  0  0  0  0  0  0  0  0  0  0
   -9.9953   -4.8756   14.4534 C   0  0  0  0  0  0  0  0  0  0  0  0
  -10.6431   -4.1069   13.6706 O   0  0  0  0  0  0  0  0  0  0  0  0
  -10.3712   -5.7759   15.2318 O   0  0  0  0  0  0  0  0  0  0  0  0
   -0.9656   -8.0357   17.8705 H   0  0  0  0  0  0  0  0  0  0  0  0
   -1.4049   -6.8561   20.0042 H   0  0  0  0  0  0  0  0  0  0  0  0
   -2.6087   -4.6805   19.9919 H   0  0  0  0  0  0  0  0  0  0  0  0
   -3.3625   -3.7026   17.8805 H   0  0  0  0  0  0  0  0  0  0  0  0
   -3.4410   -5.5211   14.6215 H   0  0  0  0  0  0  0  0  0  0  0  0
   -2.3099   -4.1761   14.8783 H   0  0  0  0  0  0  0  0  0  0  0  0
   -5.1134   -0.5585   15.5140 H   0  0  0  0  0  0  0  0  0  0  0  0
   -7.3615   -1.5580   15.7978 H   0  0  0  0  0  0  0  0  0  0  0  0
   -8.6913   -3.3524   16.1931 H   0  0  0  0  0  0  0  0  0  0  0  0
   -8.0132   -4.9497   16.4706 H   0  0  0  0  0  0  0  0  0  0  0  0
   -7.9223   -5.4266   14.0193 H   0  0  0  0  0  0  0  0  0  0  0  0
   -8.6007   -3.7850   12.4803 H   0  0  0  0  0  0  0  0  0  0  0  0
   -8.8459   -2.6748   13.6210 H   0  0  0  0  0  0  0  0  0  0  0  0
   -7.2327   -3.1828   13.3122 H   0  0  0  0  0  0  0  0  0  0  0  0
  1  2  2  0  0  0  0
  2  3  1  0  0  0  0
  2  4  1  0  0  0  0
  4  5  2  0  0  0  0
  4  9  1  0  0  0  0
  5  6  1  0  0  0  0
  5 25  1  0  0  0  0
  6  7  2  0  0  0  0
  6 26  1  0  0  0  0
  7  8  1  0  0  0  0
  7 27  1  0  0  0  0
  8  9  2  0  0  0  0
  8 28  1  0  0  0  0
  9 10  1  0  0  0  0
 10 11  1  0  0  0  0
 10 29  1  0  0  0  0
 10 30  1  0  0  0  0
 11 12  1  0  0  0  0
 11 14  1  0  0  0  0
 12 13  2  0  0  0  0
 12 18  1  0  0  0  0
 14 15  2  0  0  0  0
 14 16  1  0  0  0  0
 16 17  2  0  0  0  0
 16 31  1  0  0  0  0
 17 18  1  0  0  0  0
 17 32  1  0  0  0  0
 18 19  1  0  0  0  0
 19 20  1  0  0  0  0
 19 33  1  0  0  0  0
 19 34  1  0  0  0  0
 20 21  1  0  0  0  0
 20 22  1  0  0  0  0
 20 35  1  6  0  0  0
 21 36  1  0  0  0  0
 21 37  1  0  0  0  0
 21 38  1  0  0  0  0
 22 23  2  0  0  0  0
 22 24  1  0  0  0  0
M  CHG  3  11   1  18   1  21   1
M  END
$$$$
