UMP
 OpenBabel04051920403D

 31 32  0  0  1  0  0  0  0  0999 V2000
  -17.2057   34.9201   -7.8527 N   0  3  0  0  0  0  0  0  0  0  0  0
  -17.8846   34.1377   -6.9334 C   0  0  0  0  0  0  0  0  0  0  0  0
  -17.2607   33.9359   -5.7298 N   0  3  0  0  0  0  0  0  0  0  0  0
  -16.0458   34.4196   -5.3601 C   0  0  0  0  0  0  0  0  0  0  0  0
  -15.3643   35.2505   -6.3773 C   0  0  0  0  0  0  0  0  0  0  0  0
  -15.9620   35.4622   -7.5549 C   0  0  0  0  0  0  0  0  0  0  0  0
  -18.9952   33.6383   -7.1159 O   0  0  0  0  0  0  0  0  0  0  0  0
  -15.5410   34.1970   -4.2743 O   0  0  0  0  0  0  0  0  0  0  0  0
  -17.9105   35.1861   -9.1172 C   0  0  1  0  0  0  0  0  0  0  0  0
  -19.0888   36.1232   -8.9339 C   0  0  0  0  0  0  0  0  0  0  0  0
  -19.2730   36.7507  -10.2955 C   0  0  1  0  0  0  0  0  0  0  0  0
  -17.9402   36.5343  -11.0152 C   0  0  2  0  0  0  0  0  0  0  0  0
  -20.3406   36.0912  -10.9836 O   0  0  0  0  0  0  0  0  0  0  0  0
  -17.0804   35.7965  -10.1043 O   0  0  0  0  0  0  0  0  0  0  0  0
  -17.3359   37.8796  -11.4108 C   0  0  0  0  0  0  0  0  0  0  0  0
  -16.0326   37.6818  -11.9109 O   0  0  0  0  0  0  0  0  0  0  0  0
  -15.4577   38.8540  -12.8964 P   0  0  0  0  0  0  0  0  0  0  0  0
  -16.4298   38.8259  -14.0659 O   0  0  0  0  0  0  0  0  0  0  0  0
  -14.0471   38.3797  -13.2197 O   0  0  0  0  0  0  0  0  0  0  0  0
  -15.5310   40.1120  -12.0447 O   0  0  0  0  0  0  0  0  0  0  0  0
  -17.7584   33.3755   -5.0565 H   0  0  0  0  0  0  0  0  0  0  0  0
  -14.3996   35.6526   -6.1162 H   0  0  0  0  0  0  0  0  0  0  0  0
  -15.4829   36.0713   -8.3203 H   0  0  0  0  0  0  0  0  0  0  0  0
  -18.2523   34.2240   -9.5198 H   0  0  0  0  0  0  0  0  0  0  0  0
  -18.8416   36.8967   -8.1947 H   0  0  0  0  0  0  0  0  0  0  0  0
  -19.9747   35.5862   -8.5833 H   0  0  0  0  0  0  0  0  0  0  0  0
  -19.5568   37.8055  -10.2051 H   0  0  0  0  0  0  0  0  0  0  0  0
  -18.0853   35.9202  -11.9158 H   0  0  0  0  0  0  0  0  0  0  0  0
  -20.3145   36.4381  -11.8968 H   0  0  0  0  0  0  0  0  0  0  0  0
  -17.2877   38.5356  -10.5363 H   0  0  0  0  0  0  0  0  0  0  0  0
  -17.9878   38.3524  -12.1580 H   0  0  0  0  0  0  0  0  0  0  0  0
  1  2  1  0  0  0  0
  1  6  1  0  0  0  0
  1  9  1  0  0  0  0
  2  3  1  0  0  0  0
  2  7  2  0  0  0  0
  3  4  1  0  0  0  0
  3 21  1  0  0  0  0
  4  5  1  0  0  0  0
  4  8  2  0  0  0  0
  5  6  2  0  0  0  0
  5 22  1  0  0  0  0
  6 23  1  0  0  0  0
  9 10  1  0  0  0  0
  9 14  1  0  0  0  0
  9 24  1  6  0  0  0
 10 11  1  0  0  0  0
 10 25  1  0  0  0  0
 10 26  1  0  0  0  0
 11 12  1  0  0  0  0
 11 13  1  0  0  0  0
 11 27  1  1  0  0  0
 12 14  1  0  0  0  0
 12 15  1  0  0  0  0
 12 28  1  6  0  0  0
 13 29  1  0  0  0  0
 15 16  1  0  0  0  0
 15 30  1  0  0  0  0
 15 31  1  0  0  0  0
 16 17  1  0  0  0  0
 17 18  2  0  0  0  0
 17 19  1  0  0  0  0
 17 20  1  0  0  0  0
M  CHG  2   1   1   3   1
M  END
$$$$
