VD5
 OpenBabel04051918343D

 72 74  0  0  1  0  0  0  0  0999 V2000
   58.6266    8.1540    1.1336 O   0  0  0  0  0  0  0  0  0  0  0  0
   60.0469    8.1280    1.1796 C   0  0  1  0  0  0  0  0  0  0  0  0
   60.4876    6.9706    2.0450 C   0  0  0  0  0  0  0  0  0  0  0  0
   61.1287    7.1420    3.2150 C   0  0  0  0  0  0  0  0  0  0  0  0
   60.1581    5.6244    1.4390 C   0  0  2  0  0  0  0  0  0  0  0  0
   60.6012    4.5548    2.2762 O   0  0  0  0  0  0  0  0  0  0  0  0
   60.8240    5.4851    0.0635 C   0  0  0  0  0  0  0  0  0  0  0  0
   60.5865    8.0318   -0.2595 C   0  0  0  0  0  0  0  0  0  0  0  0
   60.5188    6.6346   -0.8701 C   0  0  0  0  0  0  0  0  0  0  0  0
   60.2589    6.4964   -2.1826 C   0  0  0  0  0  0  0  0  0  0  0  0
   60.2654    5.2556   -2.9285 C   0  0  0  0  0  0  0  0  0  0  0  0
   60.4552    5.1602   -4.2580 C   0  0  0  0  0  0  0  0  0  0  0  0
   60.6667    6.3461   -5.1835 C   0  0  0  0  0  0  0  0  0  0  0  0
   61.9380    6.2255   -6.0264 C   0  0  0  0  0  0  0  0  0  0  0  0
   62.1820    4.8342   -6.6124 C   0  0  0  0  0  0  0  0  0  0  0  0
   60.5854    3.8390   -5.0107 C   0  0  1  0  0  0  0  0  0  0  0  0
   62.0319    3.7104   -5.5677 C   0  0  2  0  0  0  0  0  0  0  0  0
   63.1250    3.8036   -4.4707 C   0  0  0  0  0  0  0  0  0  0  0  0
   60.3129    2.4786   -4.3677 C   0  0  0  0  0  0  0  0  0  0  0  0
   61.0126    1.4769   -5.2992 C   0  0  0  0  0  0  0  0  0  0  0  0
   62.0513    2.2718   -6.0801 C   0  0  0  0  0  0  0  0  0  0  0  0
   62.8816    1.7383   -7.0097 C   0  0  0  0  0  0  0  0  0  0  0  0
   63.9507    2.5207   -7.7302 C   0  0  0  0  0  0  0  0  0  0  0  0
   62.8343    0.2746   -7.3767 C   0  0  0  0  0  0  0  0  0  0  0  0
   63.7427   -0.5776   -6.4818 C   0  0  0  0  0  0  0  0  0  0  0  0
   65.2220   -0.4551   -6.8627 C   0  0  0  0  0  0  0  0  0  0  0  0
   66.0524   -1.7220   -6.6032 C   0  0  0  0  0  0  0  0  0  0  0  0
   65.9956   -2.1768   -5.1413 C   0  0  0  0  0  0  0  0  0  0  0  0
   67.5124   -1.4274   -6.9824 C   0  0  0  0  0  0  0  0  0  0  0  0
   65.5996   -2.7751   -7.4331 O   0  0  0  0  0  0  0  0  0  0  0  0
   58.3047    8.1045    2.0487 H   0  0  0  0  0  0  0  0  0  0  0  0
   60.3653    9.0855    1.6101 H   0  0  0  0  0  0  0  0  0  0  0  0
   61.4362    6.2971    3.8255 H   0  0  0  0  0  0  0  0  0  0  0  0
   61.3666    8.1268    3.6029 H   0  0  0  0  0  0  0  0  0  0  0  0
   59.0723    5.5201    1.3414 H   0  0  0  0  0  0  0  0  0  0  0  0
   61.5635    4.6487    2.3698 H   0  0  0  0  0  0  0  0  0  0  0  0
   60.5007    4.5237   -0.3457 H   0  0  0  0  0  0  0  0  0  0  0  0
   61.9138    5.4005    0.1770 H   0  0  0  0  0  0  0  0  0  0  0  0
   61.6338    8.3608   -0.2686 H   0  0  0  0  0  0  0  0  0  0  0  0
   60.0212    8.7381   -0.8840 H   0  0  0  0  0  0  0  0  0  0  0  0
   60.0783    7.4073   -2.7482 H   0  0  0  0  0  0  0  0  0  0  0  0
   60.1674    4.3402   -2.3554 H   0  0  0  0  0  0  0  0  0  0  0  0
   60.7480    7.2947   -4.6443 H   0  0  0  0  0  0  0  0  0  0  0  0
   59.7945    6.4347   -5.8330 H   0  0  0  0  0  0  0  0  0  0  0  0
   62.8052    6.5063   -5.4157 H   0  0  0  0  0  0  0  0  0  0  0  0
   61.8923    6.9556   -6.8432 H   0  0  0  0  0  0  0  0  0  0  0  0
   63.1827    4.8536   -7.0451 H   0  0  0  0  0  0  0  0  0  0  0  0
   61.4739    4.6649   -7.4357 H   0  0  0  0  0  0  0  0  0  0  0  0
   59.8790    3.9022   -5.8518 H   0  0  0  0  0  0  0  0  0  0  0  0
   64.1247    3.6963   -4.9054 H   0  0  0  0  0  0  0  0  0  0  0  0
   63.0204    3.0098   -3.7208 H   0  0  0  0  0  0  0  0  0  0  0  0
   63.1140    4.7545   -3.9325 H   0  0  0  0  0  0  0  0  0  0  0  0
   59.2369    2.2697   -4.3206 H   0  0  0  0  0  0  0  0  0  0  0  0
   60.7073    2.3929   -3.3502 H   0  0  0  0  0  0  0  0  0  0  0  0
   60.2860    1.0197   -5.9785 H   0  0  0  0  0  0  0  0  0  0  0  0
   61.4781    0.6863   -4.6993 H   0  0  0  0  0  0  0  0  0  0  0  0
   64.5433    1.8928   -8.4017 H   0  0  0  0  0  0  0  0  0  0  0  0
   64.6551    2.9685   -7.0221 H   0  0  0  0  0  0  0  0  0  0  0  0
   63.5075    3.2873   -8.3692 H   0  0  0  0  0  0  0  0  0  0  0  0
   63.1109    0.1395   -8.4309 H   0  0  0  0  0  0  0  0  0  0  0  0
   61.8110   -0.1075   -7.3094 H   0  0  0  0  0  0  0  0  0  0  0  0
   63.4000   -1.6119   -6.5622 H   0  0  0  0  0  0  0  0  0  0  0  0
   63.6220   -0.2969   -5.4265 H   0  0  0  0  0  0  0  0  0  0  0  0
   65.6545    0.4018   -6.3256 H   0  0  0  0  0  0  0  0  0  0  0  0
   65.2999   -0.2281   -7.9330 H   0  0  0  0  0  0  0  0  0  0  0  0
   66.5788   -3.0938   -5.0063 H   0  0  0  0  0  0  0  0  0  0  0  0
   64.9723   -2.4184   -4.8360 H   0  0  0  0  0  0  0  0  0  0  0  0
   66.3887   -1.4107   -4.4635 H   0  0  0  0  0  0  0  0  0  0  0  0
   67.5802   -1.1026   -8.0280 H   0  0  0  0  0  0  0  0  0  0  0  0
   68.1290   -2.3274   -6.8926 H   0  0  0  0  0  0  0  0  0  0  0  0
   67.9397   -0.6413   -6.3511 H   0  0  0  0  0  0  0  0  0  0  0  0
   64.7011   -3.0260   -7.1663 H   0  0  0  0  0  0  0  0  0  0  0  0
  1  2  1  0  0  0  0
  1 31  1  0  0  0  0
  2  3  1  0  0  0  0
  2  8  1  0  0  0  0
  2 32  1  1  0  0  0
  3  4  2  0  0  0  0
  3  5  1  0  0  0  0
  4 33  1  0  0  0  0
  4 34  1  0  0  0  0
  5  6  1  0  0  0  0
  5  7  1  0  0  0  0
  5 35  1  6  0  0  0
  6 36  1  0  0  0  0
  7  9  1  0  0  0  0
  7 37  1  0  0  0  0
  7 38  1  0  0  0  0
  8  9  1  0  0  0  0
  8 39  1  0  0  0  0
  8 40  1  0  0  0  0
  9 10  2  0  0  0  0
 10 11  1  0  0  0  0
 10 41  1  0  0  0  0
 11 12  2  0  0  0  0
 11 42  1  0  0  0  0
 12 13  1  0  0  0  0
 12 16  1  0  0  0  0
 13 14  1  0  0  0  0
 13 43  1  0  0  0  0
 13 44  1  0  0  0  0
 14 15  1  0  0  0  0
 14 45  1  0  0  0  0
 14 46  1  0  0  0  0
 15 17  1  0  0  0  0
 15 47  1  0  0  0  0
 15 48  1  0  0  0  0
 16 17  1  0  0  0  0
 16 19  1  0  0  0  0
 16 49  1  6  0  0  0
 17 18  1  1  0  0  0
 17 21  1  0  0  0  0
 18 50  1  0  0  0  0
 18 51  1  0  0  0  0
 18 52  1  0  0  0  0
 19 20  1  0  0  0  0
 19 53  1  0  0  0  0
 19 54  1  0  0  0  0
 20 21  1  0  0  0  0
 20 55  1  0  0  0  0
 20 56  1  0  0  0  0
 21 22  2  0  0  0  0
 22 23  1  0  0  0  0
 22 24  1  0  0  0  0
 23 57  1  0  0  0  0
 23 58  1  0  0  0  0
 23 59  1  0  0  0  0
 24 25  1  0  0  0  0
 24 60  1  0  0  0  0
 24 61  1  0  0  0  0
 25 26  1  0  0  0  0
 25 62  1  0  0  0  0
 25 63  1  0  0  0  0
 26 27  1  0  0  0  0
 26 64  1  0  0  0  0
 26 65  1  0  0  0  0
 27 28  1  0  0  0  0
 27 29  1  0  0  0  0
 27 30  1  0  0  0  0
 28 66  1  0  0  0  0
 28 67  1  0  0  0  0
 28 68  1  0  0  0  0
 29 69  1  0  0  0  0
 29 70  1  0  0  0  0
 29 71  1  0  0  0  0
 30 72  1  0  0  0  0
M  END
$$$$
