VGB
 OpenBabel04051919573D

 52 54  0  0  1  0  0  0  0  0999 V2000
   37.1059   40.7871   22.4181 C   0  0  0  0  0  0  0  0  0  0  0  0
   36.3751   41.9785   21.8569 C   0  0  0  0  0  0  0  0  0  0  0  0
   34.8530   41.8229   21.8325 C   0  0  0  0  0  0  0  0  0  0  0  0
   34.2105   40.8925   22.2557 O   0  0  0  0  0  0  0  0  0  0  0  0
   34.2508   42.8958   21.1999 N   0  0  0  0  0  0  0  0  0  0  0  0
   32.7986   43.0197   21.1100 C   0  0  2  0  0  0  0  0  0  0  0  0
   32.1587   43.1986   22.4710 C   0  0  1  0  0  0  0  0  0  0  0  0
   32.2069   44.5971   22.7345 O   0  0  0  0  0  0  0  0  0  0  0  0
   30.7072   42.6712   22.5008 C   0  0  2  0  0  0  0  0  0  0  0  0
   30.1603   43.0010   23.7613 O   0  0  0  0  0  0  0  0  0  0  0  0
   30.7848   41.1500   22.2396 C   0  0  1  0  0  0  0  0  0  0  0  0
   29.4899   40.3772   22.4922 C   0  0  0  0  0  0  0  0  0  0  0  0
   28.4026   40.9877   21.8002 O   0  0  0  0  0  0  0  0  0  0  0  0
   31.2441   41.0340   20.8397 N   0  3  1  0  0  0  0  0  0  0  0  0
   30.7985   40.1764   19.8586 C   0  0  0  0  0  0  0  0  0  0  0  0
   32.1571   41.8863   20.3564 C   0  0  1  0  0  0  0  0  0  0  0  0
   32.3048   41.5575   19.0530 N   0  3  0  0  0  0  0  0  0  0  0  0
   31.4915   40.4878   18.7274 C   0  0  2  0  0  0  0  0  0  0  0  0
   31.4225   39.8543   17.4053 C   0  0  0  0  0  0  0  0  0  0  0  0
   31.2827   40.8934   16.3109 C   0  0  0  0  0  0  0  0  0  0  0  0
   29.8859   41.4461   16.1903 C   0  0  0  0  0  0  0  0  0  0  0  0
   28.8452   40.6366   15.7061 C   0  0  0  0  0  0  0  0  0  0  0  0
   27.5582   41.1486   15.5551 C   0  0  0  0  0  0  0  0  0  0  0  0
   27.3031   42.4759   15.8991 C   0  0  0  0  0  0  0  0  0  0  0  0
   28.3235   43.2893   16.3935 C   0  0  0  0  0  0  0  0  0  0  0  0
   29.6102   42.7750   16.5424 C   0  0  0  0  0  0  0  0  0  0  0  0
   38.1884   40.9713   22.4006 H   0  0  0  0  0  0  0  0  0  0  0  0
   36.8978   39.8930   21.8231 H   0  0  0  0  0  0  0  0  0  0  0  0
   36.8027   40.6029   23.4524 H   0  0  0  0  0  0  0  0  0  0  0  0
   36.7184   42.1493   20.8289 H   0  0  0  0  0  0  0  0  0  0  0  0
   36.6218   42.8603   22.4584 H   0  0  0  0  0  0  0  0  0  0  0  0
   34.8343   43.6646   20.9005 H   0  0  0  0  0  0  0  0  0  0  0  0
   32.6049   43.9241   20.5193 H   0  0  0  0  0  0  0  0  0  0  0  0
   32.7296   42.6692   23.2474 H   0  0  0  0  0  0  0  0  0  0  0  0
   31.7921   44.7408   23.6111 H   0  0  0  0  0  0  0  0  0  0  0  0
   30.1238   43.1593   21.7027 H   0  0  0  0  0  0  0  0  0  0  0  0
   29.2435   42.6902   23.8083 H   0  0  0  0  0  0  0  0  0  0  0  0
   31.5469   40.7234   22.8978 H   0  0  0  0  0  0  0  0  0  0  0  0
   29.2511   40.3244   23.5594 H   0  0  0  0  0  0  0  0  0  0  0  0
   29.5874   39.3496   22.1189 H   0  0  0  0  0  0  0  0  0  0  0  0
   28.2887   41.8908   22.1378 H   0  0  0  0  0  0  0  0  0  0  0  0
   30.0647   39.4082   20.0026 H   0  0  0  0  0  0  0  0  0  0  0  0
   30.5721   39.1671   17.4001 H   0  0  0  0  0  0  0  0  0  0  0  0
   32.3377   39.2671   17.2675 H   0  0  0  0  0  0  0  0  0  0  0  0
   31.5670   40.4347   15.3573 H   0  0  0  0  0  0  0  0  0  0  0  0
   31.9820   41.7152   16.4997 H   0  0  0  0  0  0  0  0  0  0  0  0
   29.0412   39.6000   15.4381 H   0  0  0  0  0  0  0  0  0  0  0  0
   26.7558   40.5209   15.1652 H   0  0  0  0  0  0  0  0  0  0  0  0
   26.3035   42.8755   15.7810 H   0  0  0  0  0  0  0  0  0  0  0  0
   28.1090   44.3251   16.6546 H   0  0  0  0  0  0  0  0  0  0  0  0
   30.3980   43.4184   16.9262 H   0  0  0  0  0  0  0  0  0  0  0  0
   32.9253   42.0209   18.4066 H   0  0  0  0  0  0  0  0  0  0  0  0
  1  2  1  0  0  0  0
  1 27  1  0  0  0  0
  1 28  1  0  0  0  0
  1 29  1  0  0  0  0
  2  3  1  0  0  0  0
  2 30  1  0  0  0  0
  2 31  1  0  0  0  0
  3  4  2  0  0  0  0
  3  5  1  0  0  0  0
  5  6  1  0  0  0  0
  5 32  1  0  0  0  0
  6  7  1  0  0  0  0
  6 16  1  0  0  0  0
  6 33  1  6  0  0  0
  7  8  1  0  0  0  0
  7  9  1  0  0  0  0
  7 34  1  1  0  0  0
  8 35  1  0  0  0  0
  9 10  1  0  0  0  0
  9 11  1  0  0  0  0
  9 36  1  6  0  0  0
 10 37  1  0  0  0  0
 11 12  1  0  0  0  0
 11 14  1  0  0  0  0
 11 38  1  1  0  0  0
 12 13  1  0  0  0  0
 12 39  1  0  0  0  0
 12 40  1  0  0  0  0
 13 41  1  0  0  0  0
 14 15  1  6  0  0  0
 14 16  1  0  0  0  0
 15 18  1  0  0  0  0
 15 42  1  0  0  0  0
 16 17  1  6  0  0  0
 17 18  1  0  0  0  0
 17 52  1  0  0  0  0
 18 19  1  6  0  0  0
 19 20  1  0  0  0  0
 19 43  1  0  0  0  0
 19 44  1  0  0  0  0
 20 21  1  0  0  0  0
 20 45  1  0  0  0  0
 20 46  1  0  0  0  0
 21 22  1  0  0  0  0
 21 26  1  0  0  0  0
 22 23  1  0  0  0  0
 22 47  1  0  0  0  0
 23 24  1  0  0  0  0
 23 48  1  0  0  0  0
 24 25  1  0  0  0  0
 24 49  1  0  0  0  0
 25 26  1  0  0  0  0
 25 50  1  0  0  0  0
 26 51  1  0  0  0  0
M  CHG  2  14   1  17   1
M  END
$$$$
