VGH
 OpenBabel04051920033D

 53 56  0  0  1  0  0  0  0  0999 V2000
   18.3179   84.5862    3.5548 Cl  0  0  0  0  0  0  0  0  0  0  0  0
   18.1837   83.5882    4.9649 C   0  0  0  0  0  0  0  0  0  0  0  0
   17.7180   82.2880    4.7071 C   0  0  0  0  0  0  0  0  0  0  0  0
   17.5386   81.3808    5.7348 C   0  0  0  0  0  0  0  0  0  0  0  0
   17.8357   81.7919    7.0219 C   0  0  0  0  0  0  0  0  0  0  0  0
   17.6462   80.8778    8.0131 F   0  0  0  0  0  0  0  0  0  0  0  0
   18.5135   84.0170    6.2725 C   0  0  0  0  0  0  0  0  0  0  0  0
   18.3137   83.0753    7.3132 C   0  0  0  0  0  0  0  0  0  0  0  0
   18.6404   83.3916    8.9830 Cl  0  0  0  0  0  0  0  0  0  0  0  0
   19.0575   85.4201    6.5135 C   0  0  1  0  0  0  0  0  0  0  0  0
   18.1253   86.2385    7.4354 C   0  0  0  0  0  0  0  0  0  0  0  0
   20.3477   85.4226    7.1403 O   0  0  0  0  0  0  0  0  0  0  0  0
   21.5312   85.1375    6.5084 C   0  0  0  0  0  0  0  0  0  0  0  0
   21.7288   84.7656    5.1700 C   0  0  0  0  0  0  0  0  0  0  0  0
   22.6697   85.2254    7.3382 C   0  0  0  0  0  0  0  0  0  0  0  0
   22.5451   85.5770    8.6674 N   0  0  0  0  0  0  0  0  0  0  0  0
   23.9241   84.9776    6.8896 N   0  0  0  0  0  0  0  0  0  0  0  0
   24.0635   84.6336    5.6005 C   0  0  0  0  0  0  0  0  0  0  0  0
   23.0288   84.5004    4.6816 C   0  0  0  0  0  0  0  0  0  0  0  0
   23.3259   84.0825    3.3002 C   0  0  0  0  0  0  0  0  0  0  0  0
   22.5131   83.6355    2.2464 C   0  0  0  0  0  0  0  0  0  0  0  0
   24.6073   84.0116    2.7741 C   0  0  0  0  0  0  0  0  0  0  0  0
   24.4986   83.5484    1.4837 N   0  3  0  0  0  0  0  0  0  0  0  0
   23.2183   83.3113    1.1317 N   0  0  0  0  0  0  0  0  0  0  0  0
   25.6083   83.3625    0.5394 C   0  0  0  0  0  0  0  0  0  0  0  0
   26.0177   81.9038    0.3025 C   0  0  0  0  0  0  0  0  0  0  0  0
   25.5124   81.2281   -0.9648 C   0  0  0  0  0  0  0  0  0  0  0  0
   25.5009   82.1631   -2.1259 N   0  3  0  0  0  0  0  0  0  0  0  0
   24.8304   83.4788   -1.9021 C   0  0  0  0  0  0  0  0  0  0  0  0
   25.4931   84.1920   -0.7400 C   0  0  0  0  0  0  0  0  0  0  0  0
   17.4901   81.9834    3.6878 H   0  0  0  0  0  0  0  0  0  0  0  0
   17.1682   80.3803    5.5494 H   0  0  0  0  0  0  0  0  0  0  0  0
   19.1135   85.9862    5.5828 H   0  0  0  0  0  0  0  0  0  0  0  0
   18.5309   87.2428    7.6176 H   0  0  0  0  0  0  0  0  0  0  0  0
   18.0208   85.7835    8.4219 H   0  0  0  0  0  0  0  0  0  0  0  0
   17.1216   86.3378    7.0096 H   0  0  0  0  0  0  0  0  0  0  0  0
   20.8953   84.6761    4.4941 H   0  0  0  0  0  0  0  0  0  0  0  0
   23.3677   85.6286    9.2395 H   0  0  0  0  0  0  0  0  0  0  0  0
   21.6295   85.7694    9.0496 H   0  0  0  0  0  0  0  0  0  0  0  0
   25.0964   84.4367    5.2902 H   0  0  0  0  0  0  0  0  0  0  0  0
   21.4431   83.5243    2.2684 H   0  0  0  0  0  0  0  0  0  0  0  0
   25.5557   84.2470    3.2223 H   0  0  0  0  0  0  0  0  0  0  0  0
   26.4583   83.7958    1.0773 H   0  0  0  0  0  0  0  0  0  0  0  0
   25.7028   81.2868    1.1498 H   0  0  0  0  0  0  0  0  0  0  0  0
   27.1169   81.8694    0.2686 H   0  0  0  0  0  0  0  0  0  0  0  0
   24.4971   80.8471   -0.8245 H   0  0  0  0  0  0  0  0  0  0  0  0
   26.1680   80.3874   -1.2295 H   0  0  0  0  0  0  0  0  0  0  0  0
   26.4634   82.3221   -2.4510 H   0  0  0  0  0  0  0  0  0  0  0  0
   23.7683   83.2976   -1.7143 H   0  0  0  0  0  0  0  0  0  0  0  0
   24.9357   84.0665   -2.8217 H   0  0  0  0  0  0  0  0  0  0  0  0
   26.5061   84.4822   -1.0507 H   0  0  0  0  0  0  0  0  0  0  0  0
   24.9342   85.1095   -0.5382 H   0  0  0  0  0  0  0  0  0  0  0  0
   25.0185   81.6865   -2.9201 H   0  0  0  0  0  0  0  0  0  0  0  0
  1  2  1  0  0  0  0
  2  3  2  0  0  0  0
  2  7  1  0  0  0  0
  3  4  1  0  0  0  0
  3 31  1  0  0  0  0
  4  5  2  0  0  0  0
  4 32  1  0  0  0  0
  5  6  1  0  0  0  0
  5  8  1  0  0  0  0
  7  8  2  0  0  0  0
  7 10  1  0  0  0  0
  8  9  1  0  0  0  0
 10 11  1  0  0  0  0
 10 12  1  0  0  0  0
 10 33  1  6  0  0  0
 11 34  1  0  0  0  0
 11 35  1  0  0  0  0
 11 36  1  0  0  0  0
 12 13  1  0  0  0  0
 13 14  2  0  0  0  0
 13 15  1  0  0  0  0
 14 19  1  0  0  0  0
 14 37  1  0  0  0  0
 15 16  1  0  0  0  0
 15 17  2  0  0  0  0
 16 38  1  0  0  0  0
 16 39  1  0  0  0  0
 17 18  1  0  0  0  0
 18 19  2  0  0  0  0
 18 40  1  0  0  0  0
 19 20  1  0  0  0  0
 20 21  2  0  0  0  0
 20 22  1  0  0  0  0
 21 24  1  0  0  0  0
 21 41  1  0  0  0  0
 22 23  2  0  0  0  0
 22 42  1  0  0  0  0
 23 24  1  0  0  0  0
 23 25  1  0  0  0  0
 25 26  1  0  0  0  0
 25 30  1  0  0  0  0
 25 43  1  0  0  0  0
 26 27  1  0  0  0  0
 26 44  1  0  0  0  0
 26 45  1  0  0  0  0
 27 28  1  0  0  0  0
 27 46  1  0  0  0  0
 27 47  1  0  0  0  0
 28 29  1  0  0  0  0
 28 48  1  0  0  0  0
 28 53  1  0  0  0  0
 29 30  1  0  0  0  0
 29 49  1  0  0  0  0
 29 50  1  0  0  0  0
 30 51  1  0  0  0  0
 30 52  1  0  0  0  0
M  CHG  2  23   1  28   1
M  END
$$$$
