VGH
 OpenBabel04051920423D

 53 56  0  0  1  0  0  0  0  0999 V2000
   33.2830   46.0565    6.4744 Cl  0  0  0  0  0  0  0  0  0  0  0  0
   33.7015   45.8198    8.1397 C   0  0  0  0  0  0  0  0  0  0  0  0
   34.5299   46.8082    8.6945 C   0  0  0  0  0  0  0  0  0  0  0  0
   34.9728   46.6975   10.0051 C   0  0  0  0  0  0  0  0  0  0  0  0
   34.5754   45.6045   10.7591 C   0  0  0  0  0  0  0  0  0  0  0  0
   35.0322   45.5094   12.0170 F   0  0  0  0  0  0  0  0  0  0  0  0
   33.2575   44.7073    8.8963 C   0  0  0  0  0  0  0  0  0  0  0  0
   33.7197   44.6245   10.2322 C   0  0  0  0  0  0  0  0  0  0  0  0
   33.2721   43.3456   11.3116 Cl  0  0  0  0  0  0  0  0  0  0  0  0
   32.3410   43.6519    8.2737 C   0  0  1  0  0  0  0  0  0  0  0  0
   33.0604   42.2915    8.1617 C   0  0  0  0  0  0  0  0  0  0  0  0
   31.1328   43.4295    9.0186 O   0  0  0  0  0  0  0  0  0  0  0  0
   30.1128   44.3416    9.0483 C   0  0  0  0  0  0  0  0  0  0  0  0
   29.9999   45.5252    8.3169 C   0  0  0  0  0  0  0  0  0  0  0  0
   29.0652   44.0435    9.9489 C   0  0  0  0  0  0  0  0  0  0  0  0
   29.0120   42.8098   10.5756 N   0  0  0  0  0  0  0  0  0  0  0  0
   28.0132   44.8602   10.1510 N   0  0  0  0  0  0  0  0  0  0  0  0
   27.9664   46.0097    9.4348 C   0  0  0  0  0  0  0  0  0  0  0  0
   28.9143   46.4106    8.4958 C   0  0  0  0  0  0  0  0  0  0  0  0
   28.8130   47.6628    7.7605 C   0  0  0  0  0  0  0  0  0  0  0  0
   29.8059   48.3968    7.0623 C   0  0  0  0  0  0  0  0  0  0  0  0
   27.6723   48.4447    7.5883 C   0  0  0  0  0  0  0  0  0  0  0  0
   28.0373   49.5159    6.8210 N   0  3  0  0  0  0  0  0  0  0  0  0
   29.3382   49.5173    6.5028 N   0  0  0  0  0  0  0  0  0  0  0  0
   27.2117   50.6267    6.3402 C   0  0  0  0  0  0  0  0  0  0  0  0
   26.8896   51.6260    7.4576 C   0  0  0  0  0  0  0  0  0  0  0  0
   26.0608   52.7906    6.9388 C   0  0  0  0  0  0  0  0  0  0  0  0
   24.8403   52.2749    6.2497 N   0  3  0  0  0  0  0  0  0  0  0  0
   25.1209   51.3365    5.1234 C   0  0  0  0  0  0  0  0  0  0  0  0
   25.9375   50.1584    5.6297 C   0  0  0  0  0  0  0  0  0  0  0  0
   34.8443   47.6650    8.1007 H   0  0  0  0  0  0  0  0  0  0  0  0
   35.6260   47.4463   10.4429 H   0  0  0  0  0  0  0  0  0  0  0  0
   32.0584   43.9019    7.2472 H   0  0  0  0  0  0  0  0  0  0  0  0
   32.4129   41.5551    7.6728 H   0  0  0  0  0  0  0  0  0  0  0  0
   33.3004   41.8512    9.1340 H   0  0  0  0  0  0  0  0  0  0  0  0
   33.9944   42.3682    7.5948 H   0  0  0  0  0  0  0  0  0  0  0  0
   30.7536   45.7646    7.5804 H   0  0  0  0  0  0  0  0  0  0  0  0
   28.3223   42.7267   11.3109 H   0  0  0  0  0  0  0  0  0  0  0  0
   29.8775   42.2877   10.6488 H   0  0  0  0  0  0  0  0  0  0  0  0
   27.0973   46.6201    9.6571 H   0  0  0  0  0  0  0  0  0  0  0  0
   30.8565   48.1602    6.9423 H   0  0  0  0  0  0  0  0  0  0  0  0
   26.6560   48.3093    7.9300 H   0  0  0  0  0  0  0  0  0  0  0  0
   27.8289   51.1519    5.5911 H   0  0  0  0  0  0  0  0  0  0  0  0
   27.8157   52.0148    7.8988 H   0  0  0  0  0  0  0  0  0  0  0  0
   26.3459   51.1206    8.2658 H   0  0  0  0  0  0  0  0  0  0  0  0
   26.6084   53.4004    6.2121 H   0  0  0  0  0  0  0  0  0  0  0  0
   25.7152   53.4323    7.7548 H   0  0  0  0  0  0  0  0  0  0  0  0
   24.2084   51.8316    6.9331 H   0  0  0  0  0  0  0  0  0  0  0  0
   25.6461   51.9064    4.3491 H   0  0  0  0  0  0  0  0  0  0  0  0
   24.1513   51.0120    4.7327 H   0  0  0  0  0  0  0  0  0  0  0  0
   25.3213   49.5629    6.3142 H   0  0  0  0  0  0  0  0  0  0  0  0
   26.1934   49.5057    4.7867 H   0  0  0  0  0  0  0  0  0  0  0  0
   24.3055   53.0783    5.8834 H   0  0  0  0  0  0  0  0  0  0  0  0
  1  2  1  0  0  0  0
  2  3  2  0  0  0  0
  2  7  1  0  0  0  0
  3  4  1  0  0  0  0
  3 31  1  0  0  0  0
  4  5  2  0  0  0  0
  4 32  1  0  0  0  0
  5  6  1  0  0  0  0
  5  8  1  0  0  0  0
  7  8  2  0  0  0  0
  7 10  1  0  0  0  0
  8  9  1  0  0  0  0
 10 11  1  0  0  0  0
 10 12  1  0  0  0  0
 10 33  1  6  0  0  0
 11 34  1  0  0  0  0
 11 35  1  0  0  0  0
 11 36  1  0  0  0  0
 12 13  1  0  0  0  0
 13 14  2  0  0  0  0
 13 15  1  0  0  0  0
 14 19  1  0  0  0  0
 14 37  1  0  0  0  0
 15 16  1  0  0  0  0
 15 17  2  0  0  0  0
 16 38  1  0  0  0  0
 16 39  1  0  0  0  0
 17 18  1  0  0  0  0
 18 19  2  0  0  0  0
 18 40  1  0  0  0  0
 19 20  1  0  0  0  0
 20 21  2  0  0  0  0
 20 22  1  0  0  0  0
 21 24  1  0  0  0  0
 21 41  1  0  0  0  0
 22 23  2  0  0  0  0
 22 42  1  0  0  0  0
 23 24  1  0  0  0  0
 23 25  1  0  0  0  0
 25 26  1  0  0  0  0
 25 30  1  0  0  0  0
 25 43  1  0  0  0  0
 26 27  1  0  0  0  0
 26 44  1  0  0  0  0
 26 45  1  0  0  0  0
 27 28  1  0  0  0  0
 27 46  1  0  0  0  0
 27 47  1  0  0  0  0
 28 29  1  0  0  0  0
 28 48  1  0  0  0  0
 28 53  1  0  0  0  0
 29 30  1  0  0  0  0
 29 49  1  0  0  0  0
 29 50  1  0  0  0  0
 30 51  1  0  0  0  0
 30 52  1  0  0  0  0
M  CHG  2  23   1  28   1
M  END
$$$$
