WH6
 OpenBabel04051919193D

 45 48  0  0  1  0  0  0  0  0999 V2000
   21.9761    9.9375   15.1335 C   0  0  0  0  0  0  0  0  0  0  0  0
   21.8462   10.0597   16.5293 C   0  0  0  0  0  0  0  0  0  0  0  0
   20.7528   10.7045   17.0958 C   0  0  0  0  0  0  0  0  0  0  0  0
   19.7689   11.2413   16.2796 C   0  0  0  0  0  0  0  0  0  0  0  0
   19.8676   11.1287   14.8924 C   0  0  0  0  0  0  0  0  0  0  0  0
   20.9613   10.4792   14.3087 C   0  0  0  0  0  0  0  0  0  0  0  0
   21.0565   10.3549   12.9157 C   0  0  0  0  0  0  0  0  0  0  0  0
   22.1428    9.7070   12.3358 C   0  0  0  0  0  0  0  0  0  0  0  0
   23.1517    9.1922   13.1416 C   0  0  0  0  0  0  0  0  0  0  0  0
   23.0811    9.2976   14.5398 C   0  0  0  0  0  0  0  0  0  0  0  0
   24.1493    8.6155   15.3726 C   0  0  0  0  0  0  0  0  0  0  0  0
   23.7011    7.2241   15.8961 C   0  0  2  0  0  0  0  0  0  0  0  0
   24.8808    6.6024   16.6373 C   0  0  0  0  0  0  0  0  0  0  0  0
   24.4373    5.3979   17.4475 C   0  0  0  0  0  0  0  0  0  0  0  0
   24.9696    4.3027   17.1130 O   0  0  0  0  0  0  0  0  0  0  0  0
   23.6498    5.6510   18.4008 O   0  0  0  0  0  0  0  0  0  0  0  0
   23.2354    6.3955   14.7688 N   0  0  0  0  0  0  0  0  0  0  0  0
   21.9041    6.2457   14.4340 C   0  0  0  0  0  0  0  0  0  0  0  0
   20.9084    6.6076   15.0283 O   0  0  0  0  0  0  0  0  0  0  0  0
   21.8678    5.5844   13.1243 C   0  0  0  0  0  0  0  0  0  0  0  0
   20.8053    5.1654   12.3438 C   0  0  0  0  0  0  0  0  0  0  0  0
   21.0957    4.5480   11.1047 C   0  0  0  0  0  0  0  0  0  0  0  0
   20.0070    4.0158   10.2060 C   0  0  0  0  0  0  0  0  0  0  0  0
   20.1880    4.1271    8.9567 O   0  0  0  0  0  0  0  0  0  0  0  0
   18.9939    3.4826   10.7659 O   0  0  0  0  0  0  0  0  0  0  0  0
   22.4512    4.4045   10.7082 C   0  0  0  0  0  0  0  0  0  0  0  0
   23.5058    4.8486   11.5106 C   0  0  0  0  0  0  0  0  0  0  0  0
   23.1740    5.4254   12.7188 C   0  0  0  0  0  0  0  0  0  0  0  0
   24.0438    5.9804   13.7497 C   0  0  0  0  0  0  0  0  0  0  0  0
   25.2513    6.1098   13.5833 O   0  0  0  0  0  0  0  0  0  0  0  0
   22.5835    9.6253   17.1958 H   0  0  0  0  0  0  0  0  0  0  0  0
   20.6812   10.7645   18.1759 H   0  0  0  0  0  0  0  0  0  0  0  0
   18.9121   11.7395   16.7246 H   0  0  0  0  0  0  0  0  0  0  0  0
   19.0845   11.5465   14.2679 H   0  0  0  0  0  0  0  0  0  0  0  0
   20.2775   10.7591   12.2745 H   0  0  0  0  0  0  0  0  0  0  0  0
   22.2003    9.5908   11.2583 H   0  0  0  0  0  0  0  0  0  0  0  0
   23.9841    8.6644   12.6803 H   0  0  0  0  0  0  0  0  0  0  0  0
   24.4468    9.2723   16.2039 H   0  0  0  0  0  0  0  0  0  0  0  0
   25.0598    8.5163   14.7691 H   0  0  0  0  0  0  0  0  0  0  0  0
   22.8570    7.3540   16.5843 H   0  0  0  0  0  0  0  0  0  0  0  0
   25.3217    7.3320   17.3292 H   0  0  0  0  0  0  0  0  0  0  0  0
   25.6753    6.3136   15.9447 H   0  0  0  0  0  0  0  0  0  0  0  0
   19.7800    5.2930   12.6711 H   0  0  0  0  0  0  0  0  0  0  0  0
   22.6631    3.9130    9.7589 H   0  0  0  0  0  0  0  0  0  0  0  0
   24.5360    4.7256   11.2106 H   0  0  0  0  0  0  0  0  0  0  0  0
  1  2  2  0  0  0  0
  1  6  1  0  0  0  0
  1 10  1  0  0  0  0
  2  3  1  0  0  0  0
  2 31  1  0  0  0  0
  3  4  2  0  0  0  0
  3 32  1  0  0  0  0
  4  5  1  0  0  0  0
  4 33  1  0  0  0  0
  5  6  2  0  0  0  0
  5 34  1  0  0  0  0
  6  7  1  0  0  0  0
  7  8  2  0  0  0  0
  7 35  1  0  0  0  0
  8  9  1  0  0  0  0
  8 36  1  0  0  0  0
  9 10  2  0  0  0  0
  9 37  1  0  0  0  0
 10 11  1  0  0  0  0
 11 12  1  0  0  0  0
 11 38  1  0  0  0  0
 11 39  1  0  0  0  0
 12 13  1  0  0  0  0
 12 17  1  0  0  0  0
 12 40  1  1  0  0  0
 13 14  1  0  0  0  0
 13 41  1  0  0  0  0
 13 42  1  0  0  0  0
 14 15  2  0  0  0  0
 14 16  1  0  0  0  0
 17 18  1  0  0  0  0
 17 29  1  0  0  0  0
 18 19  2  0  0  0  0
 18 20  1  0  0  0  0
 20 21  2  0  0  0  0
 20 28  1  0  0  0  0
 21 22  1  0  0  0  0
 21 43  1  0  0  0  0
 22 23  1  0  0  0  0
 22 26  2  0  0  0  0
 23 24  2  0  0  0  0
 23 25  1  0  0  0  0
 26 27  1  0  0  0  0
 26 44  1  0  0  0  0
 27 28  2  0  0  0  0
 27 45  1  0  0  0  0
 28 29  1  0  0  0  0
 29 30  2  0  0  0  0
M  END
$$$$
