WOE
 OpenBabel04051920233D

 26 27  0  0  0  0  0  0  0  0999 V2000
    7.8346    1.2195   11.3747 C   0  0  0  0  0  0  0  0  0  0  0  0
    7.1452    0.0845   10.8753 O   0  0  0  0  0  0  0  0  0  0  0  0
    6.6456    0.1814    9.6011 C   0  0  0  0  0  0  0  0  0  0  0  0
    6.1017    1.3670    9.0879 C   0  0  0  0  0  0  0  0  0  0  0  0
    5.5698    1.4019    7.7979 C   0  0  0  0  0  0  0  0  0  0  0  0
    5.5860    0.2584    7.0086 C   0  0  0  0  0  0  0  0  0  0  0  0
    6.1183   -0.9273    7.5165 C   0  0  0  0  0  0  0  0  0  0  0  0
    6.6474   -0.9963    8.8229 C   0  0  0  0  0  0  0  0  0  0  0  0
    7.2089   -2.2641    9.3190 C   0  0  0  0  0  0  0  0  0  0  0  0
    8.1186   -2.9881    8.5803 C   0  0  0  0  0  0  0  0  0  0  0  0
    8.5355   -4.1517    9.1590 C   0  0  0  0  0  0  0  0  0  0  0  0
    9.6452   -5.1738    8.3351 Cl  0  0  0  0  0  0  0  0  0  0  0  0
    8.1424   -4.6105   10.3583 N   0  0  0  0  0  0  0  0  0  0  0  0
    7.2694   -3.8371   11.0015 C   0  0  0  0  0  0  0  0  0  0  0  0
    6.8397   -4.2397   12.2284 N   0  0  0  0  0  0  0  0  0  0  0  0
    6.7742   -2.6962   10.5233 N   0  0  0  0  0  0  0  0  0  0  0  0
    8.2224    0.9572   12.3640 H   0  0  0  0  0  0  0  0  0  0  0  0
    7.1674    2.0747   11.5053 H   0  0  0  0  0  0  0  0  0  0  0  0
    8.6850    1.4723   10.7335 H   0  0  0  0  0  0  0  0  0  0  0  0
    6.0564    2.2738    9.6818 H   0  0  0  0  0  0  0  0  0  0  0  0
    5.1326    2.3205    7.4144 H   0  0  0  0  0  0  0  0  0  0  0  0
    5.1758    0.2831    6.0025 H   0  0  0  0  0  0  0  0  0  0  0  0
    6.1022   -1.8139    6.8855 H   0  0  0  0  0  0  0  0  0  0  0  0
    8.4798   -2.6611    7.6157 H   0  0  0  0  0  0  0  0  0  0  0  0
    7.1984   -5.0959   12.6131 H   0  0  0  0  0  0  0  0  0  0  0  0
    6.2136   -3.6266   12.7258 H   0  0  0  0  0  0  0  0  0  0  0  0
  1  2  1  0  0  0  0
  1 17  1  0  0  0  0
  1 18  1  0  0  0  0
  1 19  1  0  0  0  0
  2  3  1  0  0  0  0
  3  4  2  0  0  0  0
  3  8  1  0  0  0  0
  4  5  1  0  0  0  0
  4 20  1  0  0  0  0
  5  6  2  0  0  0  0
  5 21  1  0  0  0  0
  6  7  1  0  0  0  0
  6 22  1  0  0  0  0
  7  8  2  0  0  0  0
  7 23  1  0  0  0  0
  8  9  1  0  0  0  0
  9 10  2  0  0  0  0
  9 16  1  0  0  0  0
 10 11  1  0  0  0  0
 10 24  1  0  0  0  0
 11 12  1  0  0  0  0
 11 13  2  0  0  0  0
 13 14  1  0  0  0  0
 14 15  1  0  0  0  0
 14 16  2  0  0  0  0
 15 25  1  0  0  0  0
 15 26  1  0  0  0  0
M  END
$$$$
