WSH
 OpenBabel04051920413D

 53 57  0  0  1  0  0  0  0  0999 V2000
   -8.2080   -4.7156    5.8218 C   0  0  0  0  0  0  0  0  0  0  0  0
   -8.9893  -11.5044    3.7655 C   0  0  0  0  0  0  0  0  0  0  0  0
   -7.8927   -4.4122    4.4939 C   0  0  0  0  0  0  0  0  0  0  0  0
   -9.3349   -5.4849    6.1093 C   0  0  0  0  0  0  0  0  0  0  0  0
   -8.2350   -7.1474   -0.0407 C   0  0  0  0  0  0  0  0  0  0  0  0
  -10.0470  -12.4098    3.7023 C   0  0  0  0  0  0  0  0  0  0  0  0
   -9.2408  -10.1536    3.9922 C   0  0  0  0  0  0  0  0  0  0  0  0
   -8.8710   -6.7187   -1.1957 C   0  0  0  0  0  0  0  0  0  0  0  0
   -8.6981   -4.8778    3.4614 C   0  0  0  0  0  0  0  0  0  0  0  0
  -10.1429   -5.9534    5.0772 C   0  0  0  0  0  0  0  0  0  0  0  0
   -8.8616   -7.0010    1.1945 C   0  0  0  0  0  0  0  0  0  0  0  0
  -11.3641  -11.9730    3.8603 C   0  0  0  0  0  0  0  0  0  0  0  0
  -10.5532   -9.7199    4.1544 C   0  0  0  0  0  0  0  0  0  0  0  0
  -10.1301   -6.1231   -1.1156 C   0  0  0  0  0  0  0  0  0  0  0  0
   -9.8213   -5.6625    3.7480 C   0  0  0  0  0  0  0  0  0  0  0  0
  -10.1262   -6.3886    1.2915 C   0  0  0  0  0  0  0  0  0  0  0  0
  -11.6293  -10.6206    4.0888 C   0  0  0  0  0  0  0  0  0  0  0  0
  -10.7565   -5.9312    0.1198 C   0  0  0  0  0  0  0  0  0  0  0  0
  -13.0786   -5.7583    0.9526 C   0  0  0  0  0  0  0  0  0  0  0  0
  -12.5747   -4.3429   -0.6332 C   0  0  0  0  0  0  0  0  0  0  0  0
  -10.7119   -6.1714    2.6539 C   0  0  0  0  0  0  0  0  0  0  0  0
  -14.2563   -8.2885    3.3471 C   0  0  0  0  0  0  0  0  0  0  0  0
  -12.8741   -6.8442    1.9340 C   0  0  1  0  0  0  0  0  0  0  0  0
  -11.8024   -3.4821   -1.5586 C   0  0  0  0  0  0  0  0  0  0  0  0
  -13.0426  -10.1148    4.2372 C   0  0  0  0  0  0  0  0  0  0  0  0
  -14.1737   -5.0917    0.6474 N   0  0  0  0  0  0  0  0  0  0  0  0
  -13.8520   -4.1966   -0.3387 N   0  0  0  0  0  0  0  0  0  0  0  0
  -11.9539   -6.3687    2.9573 N   0  0  0  0  0  0  0  0  0  0  0  0
  -12.0443   -5.3503    0.1489 N   0  3  0  0  0  0  0  0  0  0  0  0
  -14.1162   -7.1853    2.5606 N   0  0  0  0  0  0  0  0  0  0  0  0
  -15.2588   -8.5435    3.9912 O   0  0  0  0  0  0  0  0  0  0  0  0
  -13.1392   -9.0366    3.3151 O   0  0  0  0  0  0  0  0  0  0  0  0
   -7.5861   -4.3412    6.6257 H   0  0  0  0  0  0  0  0  0  0  0  0
   -7.9657  -11.8519    3.6413 H   0  0  0  0  0  0  0  0  0  0  0  0
   -7.0175   -3.8054    4.2719 H   0  0  0  0  0  0  0  0  0  0  0  0
   -9.5829   -5.7134    7.1468 H   0  0  0  0  0  0  0  0  0  0  0  0
   -7.2511   -7.6075   -0.1036 H   0  0  0  0  0  0  0  0  0  0  0  0
   -9.8470  -13.4665    3.5260 H   0  0  0  0  0  0  0  0  0  0  0  0
   -8.4233   -9.4398    4.0372 H   0  0  0  0  0  0  0  0  0  0  0  0
   -8.4081   -6.8642   -2.1686 H   0  0  0  0  0  0  0  0  0  0  0  0
   -8.4382   -4.6087    2.4419 H   0  0  0  0  0  0  0  0  0  0  0  0
  -11.0238   -6.5475    5.3186 H   0  0  0  0  0  0  0  0  0  0  0  0
   -8.3384   -7.3500    2.0841 H   0  0  0  0  0  0  0  0  0  0  0  0
  -12.1786  -12.6890    3.7941 H   0  0  0  0  0  0  0  0  0  0  0  0
  -10.7488   -8.6662    4.3181 H   0  0  0  0  0  0  0  0  0  0  0  0
  -10.6299   -5.8905   -2.0522 H   0  0  0  0  0  0  0  0  0  0  0  0
  -12.4951   -7.7470    1.4352 H   0  0  0  0  0  0  0  0  0  0  0  0
  -12.4469   -2.7240   -2.0101 H   0  0  0  0  0  0  0  0  0  0  0  0
  -11.3832   -4.0558   -2.3852 H   0  0  0  0  0  0  0  0  0  0  0  0
  -10.9874   -2.9741   -1.0321 H   0  0  0  0  0  0  0  0  0  0  0  0
  -13.2038   -9.7752    5.2670 H   0  0  0  0  0  0  0  0  0  0  0  0
  -13.7739  -10.8849    3.9711 H   0  0  0  0  0  0  0  0  0  0  0  0
  -14.8781   -6.5232    2.5266 H   0  0  0  0  0  0  0  0  0  0  0  0
  1  3  2  0  0  0  0
  1  4  1  0  0  0  0
  1 33  1  0  0  0  0
  2  6  2  0  0  0  0
  2  7  1  0  0  0  0
  2 34  1  0  0  0  0
  3  9  1  0  0  0  0
  3 35  1  0  0  0  0
  4 10  2  0  0  0  0
  4 36  1  0  0  0  0
  5  8  2  0  0  0  0
  5 11  1  0  0  0  0
  5 37  1  0  0  0  0
  6 12  1  0  0  0  0
  6 38  1  0  0  0  0
  7 13  2  0  0  0  0
  7 39  1  0  0  0  0
  8 14  1  0  0  0  0
  8 40  1  0  0  0  0
  9 15  2  0  0  0  0
  9 41  1  0  0  0  0
 10 15  1  0  0  0  0
 10 42  1  0  0  0  0
 11 16  2  0  0  0  0
 11 43  1  0  0  0  0
 12 17  2  0  0  0  0
 12 44  1  0  0  0  0
 13 17  1  0  0  0  0
 13 45  1  0  0  0  0
 14 18  2  0  0  0  0
 14 46  1  0  0  0  0
 15 21  1  0  0  0  0
 16 18  1  0  0  0  0
 16 21  1  0  0  0  0
 17 25  1  0  0  0  0
 18 29  1  0  0  0  0
 19 23  1  0  0  0  0
 19 26  1  0  0  0  0
 19 29  2  0  0  0  0
 20 24  1  0  0  0  0
 20 27  2  0  0  0  0
 20 29  1  0  0  0  0
 21 28  2  0  0  0  0
 22 30  1  0  0  0  0
 22 31  2  0  0  0  0
 22 32  1  0  0  0  0
 23 28  1  0  0  0  0
 23 30  1  0  0  0  0
 23 47  1  6  0  0  0
 24 48  1  0  0  0  0
 24 49  1  0  0  0  0
 24 50  1  0  0  0  0
 25 32  1  0  0  0  0
 25 51  1  0  0  0  0
 25 52  1  0  0  0  0
 26 27  1  0  0  0  0
 30 53  1  0  0  0  0
M  CHG  1  29   1
M  END
$$$$
