WZB
 OpenBabel04051920133D

 60 63  0  0  1  0  0  0  0  0999 V2000
   -7.2926    1.0552   17.1832 O   0  0  0  0  0  0  0  0  0  0  0  0
   -5.8580    1.1903   16.8718 S   0  0  0  0  0  0  0  0  0  0  0  0
   -5.0283    1.7401   17.8890 O   0  0  0  0  0  0  0  0  0  0  0  0
   -5.2560   -0.2894   16.5837 N   0  0  0  0  0  0  0  0  0  0  0  0
   -5.7383    1.9739   15.4558 O   0  0  0  0  0  0  0  0  0  0  0  0
   -4.4925    2.1854   14.8412 C   0  0  1  0  0  0  0  0  0  0  0  0
   -4.3348    1.3674   13.5169 C   0  0  0  0  0  0  0  0  0  0  0  0
   -3.3380    2.1625   12.6529 C   0  0  0  0  0  0  0  0  0  0  0  0
   -4.2712    3.6417   14.3602 C   0  0  1  0  0  0  0  0  0  0  0  0
   -2.9630    3.3308   13.5774 C   0  0  2  0  0  0  0  0  0  0  0  0
   -5.5004    4.0909   13.5201 C   0  0  0  0  0  0  0  0  0  0  0  0
   -4.0270    4.7299   15.4312 C   0  0  0  0  0  0  0  0  0  0  0  0
   -3.2767    5.9674   14.8785 C   0  0  0  0  0  0  0  0  0  0  0  0
   -1.9886    5.5777   14.0892 C   0  0  1  0  0  0  0  0  0  0  0  0
   -2.3141    4.5621   12.9430 C   0  0  1  0  0  0  0  0  0  0  0  0
   -1.0199    4.2117   12.1567 C   0  0  0  0  0  0  0  0  0  0  0  0
   -0.4144    5.4654   11.4773 C   0  0  0  0  0  0  0  0  0  0  0  0
   -0.4843    6.7292   12.3203 C   0  0  0  0  0  0  0  0  0  0  0  0
    0.2032    7.9256   11.8953 C   0  0  0  0  0  0  0  0  0  0  0  0
   -1.2128    6.7603   13.4963 C   0  0  0  0  0  0  0  0  0  0  0  0
   -1.1407    7.9968   14.1240 C   0  0  0  0  0  0  0  0  0  0  0  0
   -0.5117    9.2070   13.8306 C   0  0  0  0  0  0  0  0  0  0  0  0
   -0.6784   10.3854   14.7900 C   0  0  0  0  0  0  0  0  0  0  0  0
   -1.8783   11.2194   14.3697 C   0  0  0  0  0  0  0  0  0  0  0  0
    0.2006    9.1433   12.6441 C   0  0  0  0  0  0  0  0  0  0  0  0
    0.8951   10.2401   12.1764 O   0  0  0  0  0  0  0  0  0  0  0  0
    2.5347   10.2795   12.1794 S   0  0  0  0  0  0  0  0  0  0  0  0
    2.9952   11.6616   12.0857 O   0  0  0  0  0  0  0  0  0  0  0  0
    3.1012    9.3754   11.1907 O   0  0  0  0  0  0  0  0  0  0  0  0
    3.0467    9.7287   13.6300 N   0  0  0  0  0  0  0  0  0  0  0  0
   -5.2234   -0.9482   17.3474 H   0  0  0  0  0  0  0  0  0  0  0  0
   -4.8972   -0.4960   15.6674 H   0  0  0  0  0  0  0  0  0  0  0  0
   -3.6845    1.9080   15.5232 H   0  0  0  0  0  0  0  0  0  0  0  0
   -5.3025    1.2724   13.0037 H   0  0  0  0  0  0  0  0  0  0  0  0
   -3.9496    0.3646   13.7302 H   0  0  0  0  0  0  0  0  0  0  0  0
   -3.8088    2.5281   11.7257 H   0  0  0  0  0  0  0  0  0  0  0  0
   -2.4621    1.5540   12.3834 H   0  0  0  0  0  0  0  0  0  0  0  0
   -2.2309    2.9237   14.3102 H   0  0  0  0  0  0  0  0  0  0  0  0
   -6.3646    4.2932   14.1813 H   0  0  0  0  0  0  0  0  0  0  0  0
   -5.7966    3.3073   12.8113 H   0  0  0  0  0  0  0  0  0  0  0  0
   -5.2724    5.0032   12.9587 H   0  0  0  0  0  0  0  0  0  0  0  0
   -3.4364    4.3076   16.2524 H   0  0  0  0  0  0  0  0  0  0  0  0
   -4.9973    5.0652   15.8318 H   0  0  0  0  0  0  0  0  0  0  0  0
   -3.0053    6.6240   15.7253 H   0  0  0  0  0  0  0  0  0  0  0  0
   -3.9461    6.5310   14.2114 H   0  0  0  0  0  0  0  0  0  0  0  0
   -1.3305    5.0670   14.8186 H   0  0  0  0  0  0  0  0  0  0  0  0
   -3.0196    5.0220   12.2306 H   0  0  0  0  0  0  0  0  0  0  0  0
   -1.2453    3.4514   11.3878 H   0  0  0  0  0  0  0  0  0  0  0  0
   -0.2778    3.7826   12.8517 H   0  0  0  0  0  0  0  0  0  0  0  0
   -0.9527    5.6423   10.5305 H   0  0  0  0  0  0  0  0  0  0  0  0
    0.6444    5.2623   11.2388 H   0  0  0  0  0  0  0  0  0  0  0  0
    0.7719    7.8930   10.9523 H   0  0  0  0  0  0  0  0  0  0  0  0
   -1.6850    8.0316   15.0322 H   0  0  0  0  0  0  0  0  0  0  0  0
    0.2286   10.9984   14.7555 H   0  0  0  0  0  0  0  0  0  0  0  0
   -0.8245   10.0566   15.8454 H   0  0  0  0  0  0  0  0  0  0  0  0
   -1.9873   12.0966   15.0194 H   0  0  0  0  0  0  0  0  0  0  0  0
   -2.7933   10.6142   14.4274 H   0  0  0  0  0  0  0  0  0  0  0  0
   -1.7378   11.5551   13.3337 H   0  0  0  0  0  0  0  0  0  0  0  0
    4.0418    9.6849   13.7940 H   0  0  0  0  0  0  0  0  0  0  0  0
    2.3694    9.4303   14.3190 H   0  0  0  0  0  0  0  0  0  0  0  0
  1  2  2  0  0  0  0
  2  3  2  0  0  0  0
  2  4  1  0  0  0  0
  2  5  1  0  0  0  0
  4 31  1  0  0  0  0
  4 32  1  0  0  0  0
  5  6  1  0  0  0  0
  6  7  1  0  0  0  0
  6  9  1  0  0  0  0
  6 33  1  1  0  0  0
  7  8  1  0  0  0  0
  7 34  1  0  0  0  0
  7 35  1  0  0  0  0
  8 10  1  0  0  0  0
  8 36  1  0  0  0  0
  8 37  1  0  0  0  0
  9 10  1  0  0  0  0
  9 11  1  6  0  0  0
  9 12  1  0  0  0  0
 10 15  1  0  0  0  0
 10 38  1  1  0  0  0
 11 39  1  0  0  0  0
 11 40  1  0  0  0  0
 11 41  1  0  0  0  0
 12 13  1  0  0  0  0
 12 42  1  0  0  0  0
 12 43  1  0  0  0  0
 13 14  1  0  0  0  0
 13 44  1  0  0  0  0
 13 45  1  0  0  0  0
 14 15  1  0  0  0  0
 14 20  1  0  0  0  0
 14 46  1  1  0  0  0
 15 16  1  0  0  0  0
 15 47  1  6  0  0  0
 16 17  1  0  0  0  0
 16 48  1  0  0  0  0
 16 49  1  0  0  0  0
 17 18  1  0  0  0  0
 17 50  1  0  0  0  0
 17 51  1  0  0  0  0
 18 19  2  0  0  0  0
 18 20  1  0  0  0  0
 19 25  1  0  0  0  0
 19 52  1  0  0  0  0
 20 21  2  0  0  0  0
 21 22  1  0  0  0  0
 21 53  1  0  0  0  0
 22 23  1  0  0  0  0
 22 25  2  0  0  0  0
 23 24  1  0  0  0  0
 23 54  1  0  0  0  0
 23 55  1  0  0  0  0
 24 56  1  0  0  0  0
 24 57  1  0  0  0  0
 24 58  1  0  0  0  0
 25 26  1  0  0  0  0
 26 27  1  0  0  0  0
 27 28  2  0  0  0  0
 27 29  2  0  0  0  0
 27 30  1  0  0  0  0
 30 59  1  0  0  0  0
 30 60  1  0  0  0  0
M  END
$$$$
