X09
 OpenBabel04051920113D

 30 31  0  0  1  0  0  0  0  0999 V2000
   49.1680   41.7025   74.1448 O   0  0  0  0  0  0  0  0  0  0  0  0
   49.1372   41.7910   72.7224 C   0  0  1  0  0  0  0  0  0  0  0  0
   49.6341   43.1207   72.1278 C   0  0  2  0  0  0  0  0  0  0  0  0
   48.6666   44.1712   72.2387 O   0  0  0  0  0  0  0  0  0  0  0  0
   49.8308   42.6903   70.6777 C   0  0  1  0  0  0  0  0  0  0  0  0
   50.8522   43.4382   69.8232 C   0  0  1  0  0  0  0  0  0  0  0  0
   51.8374   44.0932   70.6129 O   0  0  0  0  0  0  0  0  0  0  0  0
   51.5257   42.2970   69.0701 C   0  0  0  0  0  0  0  0  0  0  0  0
   51.6172   41.2266   70.1461 C   0  0  0  0  0  0  0  0  0  0  0  0
   50.2727   41.2637   70.7319 N   0  0  1  0  0  0  0  0  0  0  0  0
   50.2076   40.8505   72.1443 C   0  0  2  0  0  0  0  0  0  0  0  0
   49.9189   39.3423   72.2669 C   0  0  0  0  0  0  0  0  0  0  0  0
   49.4020   38.9559   73.6123 N   0  3  0  0  0  0  0  0  0  0  0  0
   48.2718   41.4837   74.4519 H   0  0  0  0  0  0  0  0  0  0  0  0
   48.1215   41.5690   72.3696 H   0  0  0  0  0  0  0  0  0  0  0  0
   50.5584   43.4300   72.6380 H   0  0  0  0  0  0  0  0  0  0  0  0
   49.1256   45.0213   72.0125 H   0  0  0  0  0  0  0  0  0  0  0  0
   48.8648   42.7008   70.1484 H   0  0  0  0  0  0  0  0  0  0  0  0
   50.3931   44.1609   69.1386 H   0  0  0  0  0  0  0  0  0  0  0  0
   51.4311   44.8748   71.0259 H   0  0  0  0  0  0  0  0  0  0  0  0
   52.5136   42.5624   68.6780 H   0  0  0  0  0  0  0  0  0  0  0  0
   50.8920   41.9491   68.2444 H   0  0  0  0  0  0  0  0  0  0  0  0
   52.3944   41.4936   70.8739 H   0  0  0  0  0  0  0  0  0  0  0  0
   51.8471   40.2392   69.7374 H   0  0  0  0  0  0  0  0  0  0  0  0
   51.1467   41.0566   72.6803 H   0  0  0  0  0  0  0  0  0  0  0  0
   50.8414   38.7809   72.1138 H   0  0  0  0  0  0  0  0  0  0  0  0
   49.1738   39.0188   71.5334 H   0  0  0  0  0  0  0  0  0  0  0  0
   49.3013   37.9357   73.6699 H   0  0  0  0  0  0  0  0  0  0  0  0
   50.0183   39.3042   74.3780 H   0  0  0  0  0  0  0  0  0  0  0  0
   48.4650   39.3539   73.7531 H   0  0  0  0  0  0  0  0  0  0  0  0
  1  2  1  0  0  0  0
  1 14  1  0  0  0  0
  2  3  1  0  0  0  0
  2 11  1  0  0  0  0
  2 15  1  6  0  0  0
  3  4  1  0  0  0  0
  3  5  1  0  0  0  0
  3 16  1  1  0  0  0
  4 17  1  0  0  0  0
  5  6  1  0  0  0  0
  5 10  1  0  0  0  0
  5 18  1  6  0  0  0
  6  7  1  0  0  0  0
  6  8  1  0  0  0  0
  6 19  1  6  0  0  0
  7 20  1  0  0  0  0
  8  9  1  0  0  0  0
  8 21  1  0  0  0  0
  8 22  1  0  0  0  0
  9 23  1  0  0  0  0
  9 24  1  0  0  0  0
 10  9  1  1  0  0  0
 10 11  1  0  0  0  0
 11 12  1  0  0  0  0
 11 25  1  1  0  0  0
 12 13  1  0  0  0  0
 12 26  1  0  0  0  0
 12 27  1  0  0  0  0
 13 28  1  0  0  0  0
 13 29  1  0  0  0  0
 13 30  1  0  0  0  0
M  CHG  1  13   1
M  END
$$$$
