X0T
 OpenBabel04051920113D

 32 33  0  0  1  0  0  0  0  0999 V2000
   35.5841   47.1929   22.1796 C   0  0  0  0  0  0  0  0  0  0  0  0
   35.2670   45.7743   22.2358 N   0  3  0  0  0  0  0  0  0  0  0  0
   36.3045   44.8289   22.1727 C   0  0  0  0  0  0  0  0  0  0  0  0
   37.4816   45.1764   22.0688 O   0  0  0  0  0  0  0  0  0  0  0  0
   35.9590   43.4655   22.2278 N   0  3  0  0  0  0  0  0  0  0  0  0
   37.0253   42.4684   22.1694 C   0  0  0  0  0  0  0  0  0  0  0  0
   34.6562   42.9762   22.3381 C   0  0  0  0  0  0  0  0  0  0  0  0
   34.3796   41.7852   22.3691 O   0  0  0  0  0  0  0  0  0  0  0  0
   33.6780   44.0063   22.3957 C   0  0  0  0  0  0  0  0  0  0  0  0
   33.9628   45.3362   22.3529 C   0  0  0  0  0  0  0  0  0  0  0  0
   32.8313   46.0959   22.4312 N   0  0  0  0  0  0  0  0  0  0  0  0
   31.8473   45.2159   22.5396 C   0  0  0  0  0  0  0  0  0  0  0  0
   32.3171   43.9294   22.5187 N   0  3  0  0  0  0  0  0  0  0  0  0
   31.5763   42.6877   22.6028 C   0  0  0  0  0  0  0  0  0  0  0  0
   30.0631   42.8264   22.6737 C   0  0  2  0  0  0  0  0  0  0  0  0
   29.7066   43.4238   23.9272 O   0  0  0  0  0  0  0  0  0  0  0  0
   29.4440   41.4333   22.5797 C   0  0  0  0  0  0  0  0  0  0  0  0
   28.1213   41.5341   22.0645 O   0  0  0  0  0  0  0  0  0  0  0  0
   36.6623   47.3596   22.0932 H   0  0  0  0  0  0  0  0  0  0  0  0
   35.2377   47.6892   23.0913 H   0  0  0  0  0  0  0  0  0  0  0  0
   35.1028   47.6447   21.3067 H   0  0  0  0  0  0  0  0  0  0  0  0
   38.0168   42.9148   22.0796 H   0  0  0  0  0  0  0  0  0  0  0  0
   36.8626   41.8018   21.3135 H   0  0  0  0  0  0  0  0  0  0  0  0
   36.9980   41.8526   23.0744 H   0  0  0  0  0  0  0  0  0  0  0  0
   30.7950   45.4579   22.6398 H   0  0  0  0  0  0  0  0  0  0  0  0
   31.9421   42.1611   23.4929 H   0  0  0  0  0  0  0  0  0  0  0  0
   31.8435   42.1103   21.7080 H   0  0  0  0  0  0  0  0  0  0  0  0
   29.6871   43.4725   21.8715 H   0  0  0  0  0  0  0  0  0  0  0  0
   28.7417   43.5234   23.9688 H   0  0  0  0  0  0  0  0  0  0  0  0
   29.4001   40.9522   23.5622 H   0  0  0  0  0  0  0  0  0  0  0  0
   30.0104   40.7914   21.8976 H   0  0  0  0  0  0  0  0  0  0  0  0
   27.6066   42.1013   22.6600 H   0  0  0  0  0  0  0  0  0  0  0  0
  1  2  1  0  0  0  0
  1 19  1  0  0  0  0
  1 20  1  0  0  0  0
  1 21  1  0  0  0  0
  2  3  1  0  0  0  0
  2 10  1  0  0  0  0
  3  4  2  0  0  0  0
  3  5  1  0  0  0  0
  5  6  1  0  0  0  0
  5  7  1  0  0  0  0
  6 22  1  0  0  0  0
  6 23  1  0  0  0  0
  6 24  1  0  0  0  0
  7  8  2  0  0  0  0
  7  9  1  0  0  0  0
  9 10  2  0  0  0  0
  9 13  1  0  0  0  0
 10 11  1  0  0  0  0
 11 12  1  0  0  0  0
 12 13  2  0  0  0  0
 12 25  1  0  0  0  0
 13 14  1  0  0  0  0
 14 15  1  0  0  0  0
 14 26  1  0  0  0  0
 14 27  1  0  0  0  0
 15 16  1  0  0  0  0
 15 17  1  0  0  0  0
 15 28  1  6  0  0  0
 16 29  1  0  0  0  0
 17 18  1  0  0  0  0
 17 30  1  0  0  0  0
 17 31  1  0  0  0  0
 18 32  1  0  0  0  0
M  CHG  3   2   1   5   1  13   1
M  END
$$$$
