X95
 OpenBabel04051920153D

 70 72  0  0  1  0  0  0  0  0999 V2000
   26.7015   -1.2704  -23.0730 C   0  0  0  0  0  0  0  0  0  0  0  0
   27.2222   -1.9252  -25.4747 N   0  3  0  0  0  0  0  0  0  0  0  0
   25.4843   -1.5298  -23.3194 O   0  0  0  0  0  0  0  0  0  0  0  0
   27.5101   -0.9336  -24.3552 C   0  0  1  0  0  0  0  0  0  0  0  0
   27.0816    0.4319  -24.8775 C   0  0  0  0  0  0  0  0  0  0  0  0
   27.4453   -7.9518  -29.3099 N   0  3  0  0  0  0  0  0  0  0  0  0
   31.1172   -5.0056  -27.0710 O   0  0  0  0  0  0  0  0  0  0  0  0
   29.8159   -2.6992  -25.6117 O   0  0  0  0  0  0  0  0  0  0  0  0
   32.8705   -4.6169  -25.6292 O   0  0  0  0  0  0  0  0  0  0  0  0
   26.9317    5.5801  -25.2895 C   0  0  0  0  0  0  0  0  0  0  0  0
   27.7838    5.3049  -24.2216 C   0  0  0  0  0  0  0  0  0  0  0  0
   26.4201    4.5374  -26.0551 C   0  0  0  0  0  0  0  0  0  0  0  0
   27.4684   -9.5781  -23.5423 C   0  0  0  0  0  0  0  0  0  0  0  0
   28.1604   -9.1125  -24.6272 C   0  0  0  0  0  0  0  0  0  0  0  0
   28.1192    3.9875  -23.9179 C   0  0  0  0  0  0  0  0  0  0  0  0
   26.7577    3.2218  -25.7576 C   0  0  0  0  0  0  0  0  0  0  0  0
   27.7561   -9.1163  -22.2526 C   0  0  0  0  0  0  0  0  0  0  0  0
   29.1687   -8.1721  -24.4526 C   0  0  0  0  0  0  0  0  0  0  0  0
   30.2137   -6.6379  -21.2890 C   0  0  0  0  0  0  0  0  0  0  0  0
   27.5710   -7.5386  -27.8969 C   0  0  0  0  0  0  0  0  0  0  0  0
   27.1433   -6.0901  -27.7774 C   0  0  0  0  0  0  0  0  0  0  0  0
   27.2191   -5.6426  -26.3264 C   0  0  0  0  0  0  0  0  0  0  0  0
   28.0017    1.5152  -24.3140 C   0  0  0  0  0  0  0  0  0  0  0  0
   26.8329   -4.1759  -26.1853 C   0  0  0  0  0  0  0  0  0  0  0  0
   31.3664   -5.7977  -23.4259 C   0  0  0  0  0  0  0  0  0  0  0  0
   29.4634   -4.7506  -24.5928 N   0  0  0  0  0  0  0  0  0  0  0  0
   31.6800   -4.9013  -25.9294 C   0  0  0  0  0  0  0  0  0  0  0  0
   29.0829   -3.5507  -25.1219 C   0  0  0  0  0  0  0  0  0  0  0  0
   27.6048    2.9246  -24.6750 C   0  0  0  0  0  0  0  0  0  0  0  0
   30.4104   -6.6798  -22.6526 C   0  0  2  0  0  0  0  0  0  0  0  0
   28.7628   -8.1534  -22.0828 C   0  0  2  0  0  0  0  0  0  0  0  0
   29.4919   -7.6682  -23.1716 C   0  0  1  0  0  0  0  0  0  0  0  0
   27.5571   -3.3523  -25.1065 C   0  0  1  0  0  0  0  0  0  0  0  0
   30.7896   -5.3821  -24.7716 C   0  0  1  0  0  0  0  0  0  0  0  0
   27.3932   -1.4461  -22.0376 O   0  0  0  0  0  0  0  0  0  0  0  0
   29.2343   -7.5208  -20.9607 N   0  3  0  0  0  0  0  0  0  0  0  0
   26.2122   -1.8518  -25.6446 H   0  0  0  0  0  0  0  0  0  0  0  0
   28.5872   -0.9765  -24.1803 H   0  0  0  0  0  0  0  0  0  0  0  0
   26.0425    0.6511  -24.5987 H   0  0  0  0  0  0  0  0  0  0  0  0
   27.1275    0.4529  -25.9742 H   0  0  0  0  0  0  0  0  0  0  0  0
   27.7210   -8.9332  -29.4319 H   0  0  0  0  0  0  0  0  0  0  0  0
   26.4833   -7.8406  -29.6502 H   0  0  0  0  0  0  0  0  0  0  0  0
   26.6658    6.6065  -25.5241 H   0  0  0  0  0  0  0  0  0  0  0  0
   28.1819    6.1177  -23.6210 H   0  0  0  0  0  0  0  0  0  0  0  0
   25.7506    4.7459  -26.8845 H   0  0  0  0  0  0  0  0  0  0  0  0
   26.7021  -10.3412  -23.6860 H   0  0  0  0  0  0  0  0  0  0  0  0
   27.9625   -9.4826  -25.6330 H   0  0  0  0  0  0  0  0  0  0  0  0
   28.7847    3.7858  -23.0783 H   0  0  0  0  0  0  0  0  0  0  0  0
   26.3478    2.4347  -26.3769 H   0  0  0  0  0  0  0  0  0  0  0  0
   27.2099   -9.4969  -21.3877 H   0  0  0  0  0  0  0  0  0  0  0  0
   29.6923   -7.8715  -25.3436 H   0  0  0  0  0  0  0  0  0  0  0  0
   30.6932   -6.0154  -20.5396 H   0  0  0  0  0  0  0  0  0  0  0  0
   28.6138   -7.6967  -27.6063 H   0  0  0  0  0  0  0  0  0  0  0  0
   26.9148   -8.1920  -27.3160 H   0  0  0  0  0  0  0  0  0  0  0  0
   26.1252   -5.9487  -28.1501 H   0  0  0  0  0  0  0  0  0  0  0  0
   27.8153   -5.4669  -28.3839 H   0  0  0  0  0  0  0  0  0  0  0  0
   28.2452   -5.8312  -26.0484 H   0  0  0  0  0  0  0  0  0  0  0  0
   26.5914   -6.2626  -25.6773 H   0  0  0  0  0  0  0  0  0  0  0  0
   29.0209    1.3392  -24.6824 H   0  0  0  0  0  0  0  0  0  0  0  0
   28.0224    1.4198  -23.2215 H   0  0  0  0  0  0  0  0  0  0  0  0
   25.7529   -4.1340  -25.9792 H   0  0  0  0  0  0  0  0  0  0  0  0
   26.9746   -3.6809  -27.1516 H   0  0  0  0  0  0  0  0  0  0  0  0
   32.3070   -6.3304  -23.5482 H   0  0  0  0  0  0  0  0  0  0  0  0
   31.5725   -4.8804  -22.8452 H   0  0  0  0  0  0  0  0  0  0  0  0
   28.7698   -5.3291  -24.1340 H   0  0  0  0  0  0  0  0  0  0  0  0
   27.1596   -3.5732  -24.1092 H   0  0  0  0  0  0  0  0  0  0  0  0
   30.5583   -6.3314  -25.2434 H   0  0  0  0  0  0  0  0  0  0  0  0
   28.8741   -7.6763  -20.0132 H   0  0  0  0  0  0  0  0  0  0  0  0
   27.7942   -1.6727  -26.2881 H   0  0  0  0  0  0  0  0  0  0  0  0
   28.0662   -7.3827  -29.9027 H   0  0  0  0  0  0  0  0  0  0  0  0
  1  3  2  0  0  0  0
  1  4  1  0  0  0  0
  1 35  1  0  0  0  0
  2  4  1  0  0  0  0
  2 33  1  0  0  0  0
  2 37  1  0  0  0  0
  2 69  1  0  0  0  0
  4  5  1  0  0  0  0
  4 38  1  1  0  0  0
  5 23  1  0  0  0  0
  5 39  1  0  0  0  0
  5 40  1  0  0  0  0
  6 20  1  0  0  0  0
  6 41  1  0  0  0  0
  6 42  1  0  0  0  0
  6 70  1  0  0  0  0
  7 27  2  0  0  0  0
  8 28  2  0  0  0  0
  9 27  1  0  0  0  0
 10 11  2  0  0  0  0
 10 12  1  0  0  0  0
 10 43  1  0  0  0  0
 11 15  1  0  0  0  0
 11 44  1  0  0  0  0
 12 16  2  0  0  0  0
 12 45  1  0  0  0  0
 13 14  1  0  0  0  0
 13 17  1  0  0  0  0
 13 46  1  0  0  0  0
 14 18  1  0  0  0  0
 14 47  1  0  0  0  0
 15 29  2  0  0  0  0
 15 48  1  0  0  0  0
 16 29  1  0  0  0  0
 16 49  1  0  0  0  0
 17 50  1  0  0  0  0
 18 51  1  0  0  0  0
 19 30  1  0  0  0  0
 19 36  1  0  0  0  0
 19 52  1  0  0  0  0
 20 21  1  0  0  0  0
 20 53  1  0  0  0  0
 20 54  1  0  0  0  0
 21 22  1  0  0  0  0
 21 55  1  0  0  0  0
 21 56  1  0  0  0  0
 22 24  1  0  0  0  0
 22 57  1  0  0  0  0
 22 58  1  0  0  0  0
 23 29  1  0  0  0  0
 23 59  1  0  0  0  0
 23 60  1  0  0  0  0
 24 33  1  0  0  0  0
 24 61  1  0  0  0  0
 24 62  1  0  0  0  0
 25 34  1  0  0  0  0
 25 63  1  0  0  0  0
 25 64  1  0  0  0  0
 26 28  1  0  0  0  0
 26 34  1  0  0  0  0
 26 65  1  0  0  0  0
 27 34  1  0  0  0  0
 28 33  1  0  0  0  0
 30 25  1  6  0  0  0
 30 32  1  0  0  0  0
 31 17  1  1  0  0  0
 31 32  1  0  0  0  0
 31 36  1  0  0  0  0
 32 18  1  6  0  0  0
 33 66  1  1  0  0  0
 34 67  1  6  0  0  0
 36 68  1  0  0  0  0
M  CHG  3   2   1   6   1  36   1
M  END
$$$$
