XBV
 OpenBabel04051920193D

 57 60  0  0  1  0  0  0  0  0999 V2000
   10.4457   66.7324    4.0307 C   0  0  2  0  0  0  0  0  0  0  0  0
    9.6843   66.3422    2.7614 C   0  0  2  0  0  0  0  0  0  0  0  0
    8.9368   67.6003    2.3582 C   0  0  0  0  0  0  0  0  0  0  0  0
    9.8482   68.6670    2.7621 N   0  0  0  0  0  0  0  0  0  0  0  0
   10.4395   68.2577    4.0437 C   0  0  0  0  0  0  0  0  0  0  0  0
   11.8555   66.1574    4.0658 C   0  0  0  0  0  0  0  0  0  0  0  0
    8.7388   65.2092    3.1089 C   0  0  0  0  0  0  0  0  0  0  0  0
    9.3418   63.9785    2.9410 N   0  0  0  0  0  0  0  0  0  0  0  0
    7.6114   65.3959    3.5369 O   0  0  0  0  0  0  0  0  0  0  0  0
   12.4531   65.8532    3.0409 O   0  0  0  0  0  0  0  0  0  0  0  0
   12.3382   66.0328    5.3597 N   0  0  0  0  0  0  0  0  0  0  0  0
   13.4638   65.2830    5.7232 C   0  0  0  0  0  0  0  0  0  0  0  0
   14.0275   64.4212    4.8538 N   0  0  0  0  0  0  0  0  0  0  0  0
   15.5457   63.6997    6.5890 C   0  0  0  0  0  0  0  0  0  0  0  0
   14.9706   64.6022    7.4731 C   0  0  0  0  0  0  0  0  0  0  0  0
   15.0513   63.6512    5.2985 C   0  0  0  0  0  0  0  0  0  0  0  0
   13.9096   65.3979    7.0353 C   0  0  0  0  0  0  0  0  0  0  0  0
   16.8144   62.6647    7.0979 Cl  0  0  0  0  0  0  0  0  0  0  0  0
    8.6445   62.7629    3.0326 C   0  0  0  0  0  0  0  0  0  0  0  0
    7.7581   62.4655    4.0723 C   0  0  0  0  0  0  0  0  0  0  0  0
    7.4544   60.2471    3.1390 C   0  0  0  0  0  0  0  0  0  0  0  0
    8.2944   60.5679    2.0719 C   0  0  0  0  0  0  0  0  0  0  0  0
    7.1868   61.1903    4.1401 C   0  0  0  0  0  0  0  0  0  0  0  0
    8.8964   61.8112    2.0428 C   0  0  0  0  0  0  0  0  0  0  0  0
    6.8743   58.9558    3.1896 N   0  3  0  0  0  0  0  0  0  0  0  0
    7.3610   58.0017    4.0676 C   0  0  0  0  0  0  0  0  0  0  0  0
    5.8452   56.3710    3.1491 C   0  0  0  0  0  0  0  0  0  0  0  0
    5.3520   57.2651    2.2811 C   0  0  0  0  0  0  0  0  0  0  0  0
    6.8954   56.7439    4.0625 C   0  0  0  0  0  0  0  0  0  0  0  0
    5.8817   58.6518    2.2463 C   0  0  0  0  0  0  0  0  0  0  0  0
    5.4092   59.4369    1.4233 O   0  0  0  0  0  0  0  0  0  0  0  0
    9.7004   62.1277    1.0153 F   0  0  0  0  0  0  0  0  0  0  0  0
    9.1811   69.9809    2.8317 C   0  0  0  0  0  0  0  0  0  0  0  0
   10.1444   71.1757    2.8202 C   0  0  0  0  0  0  0  0  0  0  0  0
   11.0586   71.0742    3.8181 F   0  0  0  0  0  0  0  0  0  0  0  0
   10.8281   71.2233    1.6499 F   0  0  0  0  0  0  0  0  0  0  0  0
    9.9130   66.3670    4.9193 H   0  0  0  0  0  0  0  0  0  0  0  0
   10.3468   66.0431    1.9418 H   0  0  0  0  0  0  0  0  0  0  0  0
    7.9611   67.6932    2.8394 H   0  0  0  0  0  0  0  0  0  0  0  0
    8.7801   67.6211    1.2690 H   0  0  0  0  0  0  0  0  0  0  0  0
   11.4363   68.6893    4.1730 H   0  0  0  0  0  0  0  0  0  0  0  0
    9.8156   68.5883    4.8845 H   0  0  0  0  0  0  0  0  0  0  0  0
   10.1723   63.9553    2.3529 H   0  0  0  0  0  0  0  0  0  0  0  0
   11.8231   66.4702    6.1097 H   0  0  0  0  0  0  0  0  0  0  0  0
   15.3329   64.6872    8.4925 H   0  0  0  0  0  0  0  0  0  0  0  0
   15.4614   62.9680    4.5595 H   0  0  0  0  0  0  0  0  0  0  0  0
   13.4511   66.0979    7.7284 H   0  0  0  0  0  0  0  0  0  0  0  0
    7.5341   63.1965    4.8444 H   0  0  0  0  0  0  0  0  0  0  0  0
    8.4963   59.8580    1.2768 H   0  0  0  0  0  0  0  0  0  0  0  0
    6.5074   60.9482    4.9551 H   0  0  0  0  0  0  0  0  0  0  0  0
    8.1686   58.2998    4.7306 H   0  0  0  0  0  0  0  0  0  0  0  0
    5.4702   55.3559    3.1776 H   0  0  0  0  0  0  0  0  0  0  0  0
    4.5611   57.0310    1.5791 H   0  0  0  0  0  0  0  0  0  0  0  0
    7.2994   55.9868    4.7249 H   0  0  0  0  0  0  0  0  0  0  0  0
    8.5489   70.0323    3.7279 H   0  0  0  0  0  0  0  0  0  0  0  0
    8.5171   70.0918    1.9651 H   0  0  0  0  0  0  0  0  0  0  0  0
    9.6053   72.1181    2.9439 H   0  0  0  0  0  0  0  0  0  0  0  0
  1  2  1  0  0  0  0
  1  5  1  0  0  0  0
  1  6  1  0  0  0  0
  1 37  1  1  0  0  0
  2  3  1  0  0  0  0
  2  7  1  0  0  0  0
  2 38  1  6  0  0  0
  3  4  1  0  0  0  0
  3 39  1  0  0  0  0
  3 40  1  0  0  0  0
  4  5  1  0  0  0  0
  4 33  1  0  0  0  0
  5 41  1  0  0  0  0
  5 42  1  0  0  0  0
  6 10  2  0  0  0  0
  6 11  1  0  0  0  0
  7  8  1  0  0  0  0
  7  9  2  0  0  0  0
  8 19  1  0  0  0  0
  8 43  1  0  0  0  0
 11 12  1  0  0  0  0
 11 44  1  0  0  0  0
 12 13  2  0  0  0  0
 12 17  1  0  0  0  0
 13 16  1  0  0  0  0
 14 15  1  0  0  0  0
 14 16  2  0  0  0  0
 14 18  1  0  0  0  0
 15 17  2  0  0  0  0
 15 45  1  0  0  0  0
 16 46  1  0  0  0  0
 17 47  1  0  0  0  0
 19 20  2  0  0  0  0
 19 24  1  0  0  0  0
 20 23  1  0  0  0  0
 20 48  1  0  0  0  0
 21 22  1  0  0  0  0
 21 23  2  0  0  0  0
 21 25  1  0  0  0  0
 22 24  2  0  0  0  0
 22 49  1  0  0  0  0
 23 50  1  0  0  0  0
 24 32  1  0  0  0  0
 25 26  1  0  0  0  0
 25 30  1  0  0  0  0
 26 29  2  0  0  0  0
 26 51  1  0  0  0  0
 27 28  2  0  0  0  0
 27 29  1  0  0  0  0
 27 52  1  0  0  0  0
 28 30  1  0  0  0  0
 28 53  1  0  0  0  0
 29 54  1  0  0  0  0
 30 31  2  0  0  0  0
 33 34  1  0  0  0  0
 33 55  1  0  0  0  0
 33 56  1  0  0  0  0
 34 35  1  0  0  0  0
 34 36  1  0  0  0  0
 34 57  1  0  0  0  0
M  CHG  1  25   1
M  END
$$$$
