XDK
 OpenBabel04051920223D

 21 22  0  0  0  0  0  0  0  0999 V2000
    6.2056    4.1895    9.3245 C   0  0  0  0  0  0  0  0  0  0  0  0
    5.8119    4.2543    7.9975 C   0  0  0  0  0  0  0  0  0  0  0  0
    5.8576    3.2016    7.1546 N   0  0  0  0  0  0  0  0  0  0  0  0
    6.3071    2.0340    7.6697 C   0  0  0  0  0  0  0  0  0  0  0  0
    6.7294    1.8442    8.9886 C   0  0  0  0  0  0  0  0  0  0  0  0
    7.2187    0.5472    9.4669 C   0  0  0  0  0  0  0  0  0  0  0  0
    6.7497    0.1372   10.6641 N   0  0  0  0  0  0  0  0  0  0  0  0
    8.1096   -0.2132    8.7322 C   0  0  0  0  0  0  0  0  0  0  0  0
    8.4706   -1.4138    9.2823 C   0  0  0  0  0  0  0  0  0  0  0  0
    8.0059   -1.8588   10.4602 N   0  0  0  0  0  0  0  0  0  0  0  0
    7.1593   -1.0572   11.1118 C   0  0  0  0  0  0  0  0  0  0  0  0
    6.6766   -1.4876   12.3104 N   0  0  0  0  0  0  0  0  0  0  0  0
    6.6624    2.9683    9.8210 C   0  0  0  0  0  0  0  0  0  0  0  0
    6.1560    5.0668    9.9575 H   0  0  0  0  0  0  0  0  0  0  0  0
    5.4395    5.1786    7.5675 H   0  0  0  0  0  0  0  0  0  0  0  0
    6.3086    1.2110    6.9567 H   0  0  0  0  0  0  0  0  0  0  0  0
    8.5100    0.1141    7.7837 H   0  0  0  0  0  0  0  0  0  0  0  0
    9.1667   -2.0743    8.7761 H   0  0  0  0  0  0  0  0  0  0  0  0
    5.9903   -0.9195   12.7749 H   0  0  0  0  0  0  0  0  0  0  0  0
    6.9420   -2.4057   12.6205 H   0  0  0  0  0  0  0  0  0  0  0  0
    6.9743    2.8963   10.8609 H   0  0  0  0  0  0  0  0  0  0  0  0
  1  2  2  0  0  0  0
  1 13  1  0  0  0  0
  1 14  1  0  0  0  0
  2  3  1  0  0  0  0
  2 15  1  0  0  0  0
  3  4  2  0  0  0  0
  4  5  1  0  0  0  0
  4 16  1  0  0  0  0
  5  6  1  0  0  0  0
  5 13  2  0  0  0  0
  6  7  2  0  0  0  0
  6  8  1  0  0  0  0
  7 11  1  0  0  0  0
  8  9  2  0  0  0  0
  8 17  1  0  0  0  0
  9 10  1  0  0  0  0
  9 18  1  0  0  0  0
 10 11  2  0  0  0  0
 11 12  1  0  0  0  0
 12 19  1  0  0  0  0
 12 20  1  0  0  0  0
 13 21  1  0  0  0  0
M  END
$$$$
