XJG
 OpenBabel04051920293D

 44 46  0  0  0  0  0  0  0  0999 V2000
   14.0387   -1.1764    8.9215 C   0  0  0  0  0  0  0  0  0  0  0  0
   13.8237   -1.8146   10.3023 C   0  0  0  0  0  0  0  0  0  0  0  0
   14.7084   -1.1261   11.3440 C   0  0  0  0  0  0  0  0  0  0  0  0
   14.0563   -3.3231   10.3121 C   0  0  0  0  0  0  0  0  0  0  0  0
   15.1506   -3.8700    9.6153 C   0  0  0  0  0  0  0  0  0  0  0  0
   15.3689   -5.2502    9.5916 C   0  0  0  0  0  0  0  0  0  0  0  0
   16.5276   -5.7704    8.8450 C   0  0  0  0  0  0  0  0  0  0  0  0
   17.5216   -6.1273    9.4706 O   0  0  0  0  0  0  0  0  0  0  0  0
   16.4455   -5.8002    7.4703 N   0  0  0  0  0  0  0  0  0  0  0  0
   17.5032   -6.4249    6.6808 C   0  0  0  0  0  0  0  0  0  0  0  0
   16.8568   -6.6396    5.3501 C   0  0  0  0  0  0  0  0  0  0  0  0
   17.3416   -7.3268    4.2506 C   0  0  0  0  0  0  0  0  0  0  0  0
   16.5299   -7.4119    3.1162 C   0  0  0  0  0  0  0  0  0  0  0  0
   15.2641   -6.8033    3.0913 C   0  0  0  0  0  0  0  0  0  0  0  0
   14.7868   -6.1035    4.2023 C   0  0  0  0  0  0  0  0  0  0  0  0
   15.5913   -6.0378    5.3274 C   0  0  0  0  0  0  0  0  0  0  0  0
   15.3087   -5.3878    6.6443 C   0  0  0  0  0  0  0  0  0  0  0  0
   14.5228   -6.1016   10.2949 C   0  0  0  0  0  0  0  0  0  0  0  0
   14.7191   -7.4553   10.2511 O   0  0  0  0  0  0  0  0  0  0  0  0
   13.4574   -5.5796   11.0265 C   0  0  0  0  0  0  0  0  0  0  0  0
   13.2152   -4.1978   11.0404 C   0  0  0  0  0  0  0  0  0  0  0  0
   12.1860   -3.6141   11.7378 O   0  0  0  0  0  0  0  0  0  0  0  0
   11.3404   -4.4691   12.5022 C   0  0  0  0  0  0  0  0  0  0  0  0
   13.7902   -0.1098    8.9476 H   0  0  0  0  0  0  0  0  0  0  0  0
   13.4025   -1.6523    8.1674 H   0  0  0  0  0  0  0  0  0  0  0  0
   15.0773   -1.2527    8.5824 H   0  0  0  0  0  0  0  0  0  0  0  0
   12.7773   -1.6123   10.5614 H   0  0  0  0  0  0  0  0  0  0  0  0
   14.5258   -1.5290   12.3461 H   0  0  0  0  0  0  0  0  0  0  0  0
   14.5029   -0.0502   11.3743 H   0  0  0  0  0  0  0  0  0  0  0  0
   15.7727   -1.2574   11.1194 H   0  0  0  0  0  0  0  0  0  0  0  0
   15.8552   -3.2293    9.0912 H   0  0  0  0  0  0  0  0  0  0  0  0
   17.8206   -7.3632    7.1492 H   0  0  0  0  0  0  0  0  0  0  0  0
   18.3431   -5.7259    6.6102 H   0  0  0  0  0  0  0  0  0  0  0  0
   18.3170   -7.8011    4.2689 H   0  0  0  0  0  0  0  0  0  0  0  0
   16.8797   -7.9593    2.2439 H   0  0  0  0  0  0  0  0  0  0  0  0
   14.6484   -6.8848    2.1994 H   0  0  0  0  0  0  0  0  0  0  0  0
   13.8066   -5.6390    4.1824 H   0  0  0  0  0  0  0  0  0  0  0  0
   15.3277   -4.2997    6.5528 H   0  0  0  0  0  0  0  0  0  0  0  0
   14.3664   -5.7287    7.0838 H   0  0  0  0  0  0  0  0  0  0  0  0
   14.1360   -7.8925   10.8920 H   0  0  0  0  0  0  0  0  0  0  0  0
   12.8205   -6.2637   11.5734 H   0  0  0  0  0  0  0  0  0  0  0  0
   10.5808   -3.8503   12.9863 H   0  0  0  0  0  0  0  0  0  0  0  0
   11.9052   -4.9797   13.2893 H   0  0  0  0  0  0  0  0  0  0  0  0
   10.8212   -5.1873   11.8589 H   0  0  0  0  0  0  0  0  0  0  0  0
  1  2  1  0  0  0  0
  1 24  1  0  0  0  0
  1 25  1  0  0  0  0
  1 26  1  0  0  0  0
  2  3  1  0  0  0  0
  2  4  1  0  0  0  0
  2 27  1  0  0  0  0
  3 28  1  0  0  0  0
  3 29  1  0  0  0  0
  3 30  1  0  0  0  0
  4  5  2  0  0  0  0
  4 21  1  0  0  0  0
  5  6  1  0  0  0  0
  5 31  1  0  0  0  0
  6  7  1  0  0  0  0
  6 18  2  0  0  0  0
  7  8  2  0  0  0  0
  7  9  1  0  0  0  0
  9 10  1  0  0  0  0
  9 17  1  0  0  0  0
 10 11  1  0  0  0  0
 10 32  1  0  0  0  0
 10 33  1  0  0  0  0
 11 12  2  0  0  0  0
 11 16  1  0  0  0  0
 12 13  1  0  0  0  0
 12 34  1  0  0  0  0
 13 14  2  0  0  0  0
 13 35  1  0  0  0  0
 14 15  1  0  0  0  0
 14 36  1  0  0  0  0
 15 16  2  0  0  0  0
 15 37  1  0  0  0  0
 16 17  1  0  0  0  0
 17 38  1  0  0  0  0
 17 39  1  0  0  0  0
 18 19  1  0  0  0  0
 18 20  1  0  0  0  0
 19 40  1  0  0  0  0
 20 21  2  0  0  0  0
 20 41  1  0  0  0  0
 21 22  1  0  0  0  0
 22 23  1  0  0  0  0
 23 42  1  0  0  0  0
 23 43  1  0  0  0  0
 23 44  1  0  0  0  0
M  END
$$$$
