Y8L
 OpenBabel04051920323D

 50 53  0  0  0  0  0  0  0  0999 V2000
   21.0225   23.9899   29.2678 C   0  0  0  0  0  0  0  0  0  0  0  0
   20.8473   22.4622   29.2772 C   0  0  0  0  0  0  0  0  0  0  0  0
   21.6877   21.8022   28.2362 N   0  3  0  0  0  0  0  0  0  0  0  0
   21.5510   22.4972   26.9242 C   0  0  0  0  0  0  0  0  0  0  0  0
   22.2863   23.8327   27.0353 C   0  0  0  0  0  0  0  0  0  0  0  0
   22.0512   24.4943   28.3374 N   0  0  0  0  0  0  0  0  0  0  0  0
   22.4464   25.8298   28.4682 C   0  0  0  0  0  0  0  0  0  0  0  0
   23.3313   26.4240   27.5687 C   0  0  0  0  0  0  0  0  0  0  0  0
   23.7001   27.7633   27.6929 C   0  0  0  0  0  0  0  0  0  0  0  0
   22.0017   26.6525   29.5197 C   0  0  0  0  0  0  0  0  0  0  0  0
   22.4323   27.9714   29.6811 C   0  0  0  0  0  0  0  0  0  0  0  0
   23.2921   28.5521   28.7605 C   0  0  0  0  0  0  0  0  0  0  0  0
   23.7750   29.8366   28.9872 N   0  0  0  0  0  0  0  0  0  0  0  0
   24.8690   30.5246   28.4606 C   0  0  0  0  0  0  0  0  0  0  0  0
   25.8012   29.8941   27.7355 N   0  0  0  0  0  0  0  0  0  0  0  0
   24.9141   31.8230   28.7557 N   0  0  0  0  0  0  0  0  0  0  0  0
   25.9621   32.5103   28.2686 C   0  0  0  0  0  0  0  0  0  0  0  0
   26.9608   31.9380   27.5182 C   0  0  0  0  0  0  0  0  0  0  0  0
   26.8493   30.5891   27.2542 C   0  0  0  0  0  0  0  0  0  0  0  0
   27.8187   29.8455   26.4041 C   0  0  0  0  0  0  0  0  0  0  0  0
   29.1899   30.6970   25.7178 S   0  0  0  0  0  0  0  0  0  0  0  0
   29.7423   29.2691   24.8557 C   0  0  0  0  0  0  0  0  0  0  0  0
   30.7205   29.2519   24.1331 O   0  0  0  0  0  0  0  0  0  0  0  0
   28.8719   28.2331   25.1469 N   0  3  0  0  0  0  0  0  0  0  0  0
   29.0443   26.9293   24.5443 C   0  0  0  0  0  0  0  0  0  0  0  0
   27.8253   28.5487   26.0097 C   0  0  0  0  0  0  0  0  0  0  0  0
   26.8782   27.4617   26.3740 C   0  0  0  0  0  0  0  0  0  0  0  0
   21.2950   24.2519   30.2962 H   0  0  0  0  0  0  0  0  0  0  0  0
   20.0576   24.4650   29.0490 H   0  0  0  0  0  0  0  0  0  0  0  0
   19.8056   22.1922   29.0734 H   0  0  0  0  0  0  0  0  0  0  0  0
   21.1375   22.0370   30.2431 H   0  0  0  0  0  0  0  0  0  0  0  0
   22.6704   21.8629   28.5425 H   0  0  0  0  0  0  0  0  0  0  0  0
   20.4806   22.6396   26.7387 H   0  0  0  0  0  0  0  0  0  0  0  0
   21.9754   21.8533   26.1495 H   0  0  0  0  0  0  0  0  0  0  0  0
   21.9992   24.4625   26.1849 H   0  0  0  0  0  0  0  0  0  0  0  0
   23.3628   23.6257   26.9568 H   0  0  0  0  0  0  0  0  0  0  0  0
   23.7684   25.8804   26.7357 H   0  0  0  0  0  0  0  0  0  0  0  0
   24.3069   28.1981   26.9104 H   0  0  0  0  0  0  0  0  0  0  0  0
   21.2978   26.3008   30.2679 H   0  0  0  0  0  0  0  0  0  0  0  0
   22.0858   28.5373   30.5429 H   0  0  0  0  0  0  0  0  0  0  0  0
   23.2227   30.4514   29.5655 H   0  0  0  0  0  0  0  0  0  0  0  0
   25.9701   33.5685   28.4970 H   0  0  0  0  0  0  0  0  0  0  0  0
   27.7730   32.5536   27.1538 H   0  0  0  0  0  0  0  0  0  0  0  0
   29.9168   26.9096   23.8885 H   0  0  0  0  0  0  0  0  0  0  0  0
   28.1645   26.6901   23.9499 H   0  0  0  0  0  0  0  0  0  0  0  0
   29.1788   26.1831   25.3325 H   0  0  0  0  0  0  0  0  0  0  0  0
   26.2004   27.7715   27.1522 H   0  0  0  0  0  0  0  0  0  0  0  0
   27.3937   26.6019   26.8087 H   0  0  0  0  0  0  0  0  0  0  0  0
   26.2933   27.1390   25.5052 H   0  0  0  0  0  0  0  0  0  0  0  0
   21.4570   20.7974   28.1602 H   0  0  0  0  0  0  0  0  0  0  0  0
  1  2  1  0  0  0  0
  1  6  1  0  0  0  0
  1 28  1  0  0  0  0
  1 29  1  0  0  0  0
  2  3  1  0  0  0  0
  2 30  1  0  0  0  0
  2 31  1  0  0  0  0
  3  4  1  0  0  0  0
  3 32  1  0  0  0  0
  3 50  1  0  0  0  0
  4  5  1  0  0  0  0
  4 33  1  0  0  0  0
  4 34  1  0  0  0  0
  5  6  1  0  0  0  0
  5 35  1  0  0  0  0
  5 36  1  0  0  0  0
  6  7  1  0  0  0  0
  7  8  2  0  0  0  0
  7 10  1  0  0  0  0
  8  9  1  0  0  0  0
  8 37  1  0  0  0  0
  9 12  2  0  0  0  0
  9 38  1  0  0  0  0
 10 11  2  0  0  0  0
 10 39  1  0  0  0  0
 11 12  1  0  0  0  0
 11 40  1  0  0  0  0
 12 13  1  0  0  0  0
 13 14  1  0  0  0  0
 13 41  1  0  0  0  0
 14 15  2  0  0  0  0
 14 16  1  0  0  0  0
 15 19  1  0  0  0  0
 16 17  2  0  0  0  0
 17 18  1  0  0  0  0
 17 42  1  0  0  0  0
 18 19  2  0  0  0  0
 18 43  1  0  0  0  0
 19 20  1  0  0  0  0
 20 21  1  0  0  0  0
 20 26  2  0  0  0  0
 21 22  1  0  0  0  0
 22 23  2  0  0  0  0
 22 24  1  0  0  0  0
 24 25  1  0  0  0  0
 24 26  1  0  0  0  0
 25 44  1  0  0  0  0
 25 45  1  0  0  0  0
 25 46  1  0  0  0  0
 26 27  1  0  0  0  0
 27 47  1  0  0  0  0
 27 48  1  0  0  0  0
 27 49  1  0  0  0  0
M  CHG  2   3   1  24   1
M  END
$$$$
