YI0
 OpenBabel04051920443D

 33 35  0  0  0  0  0  0  0  0999 V2000
   30.1015    9.0330   28.0840 N   0  0  0  0  0  0  0  0  0  0  0  0
   29.9956    9.9198   27.1088 N   0  0  0  0  0  0  0  0  0  0  0  0
   30.8353    9.6177   26.0431 C   0  0  0  0  0  0  0  0  0  0  0  0
   31.6074    8.4744   26.2067 C   0  0  0  0  0  0  0  0  0  0  0  0
   30.8896   10.4714   24.8630 C   0  0  0  0  0  0  0  0  0  0  0  0
   32.5581    7.8079   25.3244 C   0  0  0  0  0  0  0  0  0  0  0  0
   32.1377    7.3871   24.0564 C   0  0  0  0  0  0  0  0  0  0  0  0
   33.0378    6.8035   23.1623 C   0  0  0  0  0  0  0  0  0  0  0  0
   34.3760    6.6411   23.5201 C   0  0  0  0  0  0  0  0  0  0  0  0
   34.8013    7.0635   24.7838 C   0  0  0  0  0  0  0  0  0  0  0  0
   33.9012    7.6386   25.6859 C   0  0  0  0  0  0  0  0  0  0  0  0
   29.7336   10.8233   24.1582 C   0  0  0  0  0  0  0  0  0  0  0  0
   29.7984   11.5952   22.9956 C   0  0  0  0  0  0  0  0  0  0  0  0
   31.0348   12.0589   22.5524 C   0  0  0  0  0  0  0  0  0  0  0  0
   32.1977   11.7528   23.2655 C   0  0  0  0  0  0  0  0  0  0  0  0
   32.1259   10.9604   24.4124 C   0  0  0  0  0  0  0  0  0  0  0  0
   31.1185   12.8088   21.4122 O   0  0  0  0  0  0  0  0  0  0  0  0
   28.5058   10.3791   24.5629 O   0  0  0  0  0  0  0  0  0  0  0  0
   35.3495    6.0911   22.7321 O   0  0  0  0  0  0  0  0  0  0  0  0
   31.2034    7.8213   27.7461 S   0  0  0  0  0  0  0  0  0  0  0  0
   34.9663    5.7427   21.4059 C   0  0  0  0  0  0  0  0  0  0  0  0
   33.7432   12.3374   22.7669 Cl  0  0  0  0  0  0  0  0  0  0  0  0
   31.1026    7.5181   23.7462 H   0  0  0  0  0  0  0  0  0  0  0  0
   32.6588    6.4887   22.1965 H   0  0  0  0  0  0  0  0  0  0  0  0
   35.8461    6.9492   25.0634 H   0  0  0  0  0  0  0  0  0  0  0  0
   34.2651    7.9738   26.6523 H   0  0  0  0  0  0  0  0  0  0  0  0
   28.8893   11.8088   22.4424 H   0  0  0  0  0  0  0  0  0  0  0  0
   33.0414   10.7221   24.9493 H   0  0  0  0  0  0  0  0  0  0  0  0
   30.2364   12.9155   21.0239 H   0  0  0  0  0  0  0  0  0  0  0  0
   27.9658   11.1677   24.7518 H   0  0  0  0  0  0  0  0  0  0  0  0
   35.8336    5.3012   20.9081 H   0  0  0  0  0  0  0  0  0  0  0  0
   34.6694    6.6325   20.8401 H   0  0  0  0  0  0  0  0  0  0  0  0
   34.1689    4.9918   21.4073 H   0  0  0  0  0  0  0  0  0  0  0  0
  1  2  2  0  0  0  0
  1 20  1  0  0  0  0
  2  3  1  0  0  0  0
  3  4  2  0  0  0  0
  3  5  1  0  0  0  0
  4  6  1  0  0  0  0
  4 20  1  0  0  0  0
  5 12  2  0  0  0  0
  5 16  1  0  0  0  0
  6  7  2  0  0  0  0
  6 11  1  0  0  0  0
  7  8  1  0  0  0  0
  7 23  1  0  0  0  0
  8  9  2  0  0  0  0
  8 24  1  0  0  0  0
  9 10  1  0  0  0  0
  9 19  1  0  0  0  0
 10 11  2  0  0  0  0
 10 25  1  0  0  0  0
 11 26  1  0  0  0  0
 12 13  1  0  0  0  0
 12 18  1  0  0  0  0
 13 14  2  0  0  0  0
 13 27  1  0  0  0  0
 14 15  1  0  0  0  0
 14 17  1  0  0  0  0
 15 16  2  0  0  0  0
 15 22  1  0  0  0  0
 16 28  1  0  0  0  0
 17 29  1  0  0  0  0
 18 30  1  0  0  0  0
 19 21  1  0  0  0  0
 21 31  1  0  0  0  0
 21 32  1  0  0  0  0
 21 33  1  0  0  0  0
M  END
$$$$
