YKI
 OpenBabel04051920453D

 52 58  0  0  1  0  0  0  0  0999 V2000
   13.2354   14.4096   26.4966 C   0  0  0  0  0  0  0  0  0  0  0  0
   13.0034   14.6183   27.8160 N   0  0  0  0  0  0  0  0  0  0  0  0
   11.7261   14.6944   28.2644 C   0  0  0  0  0  0  0  0  0  0  0  0
    9.3306   14.5775   27.4692 N   0  3  0  0  0  0  0  0  0  0  0  0
   12.2446   14.2645   25.5342 C   0  0  0  0  0  0  0  0  0  0  0  0
    9.7325   14.2358   25.3227 N   0  0  0  0  0  0  0  0  0  0  0  0
    8.7732   14.3564   26.2236 C   0  0  0  0  0  0  0  0  0  0  0  0
    3.5237   11.7895   24.7921 N   0  0  0  0  0  0  0  0  0  0  0  0
   10.9281   14.3426   26.0008 C   0  0  0  0  0  0  0  0  0  0  0  0
   -1.1969   10.2704   26.1523 N   0  0  0  0  0  0  0  0  0  0  0  0
   10.6961   14.5557   27.3510 C   0  0  0  0  0  0  0  0  0  0  0  0
   -2.2812   11.5477   24.4023 N   0  3  0  0  0  0  0  0  0  0  0  0
    7.3227   14.3435   25.9952 C   0  0  0  0  0  0  0  0  0  0  0  0
    4.5024   14.5764   25.6359 C   0  0  0  0  0  0  0  0  0  0  0  0
    5.1775   15.5302   26.3851 C   0  0  0  0  0  0  0  0  0  0  0  0
    6.5665   15.4195   26.5604 C   0  0  0  0  0  0  0  0  0  0  0  0
    2.4224   11.4171   24.0427 C   0  0  0  0  0  0  0  0  0  0  0  0
    1.2093   11.0260   24.8141 C   0  0  0  0  0  0  0  0  0  0  0  0
    2.3966   11.4519   22.8244 O   0  0  0  0  0  0  0  0  0  0  0  0
    1.2489   10.2425   25.9731 C   0  0  0  0  0  0  0  0  0  0  0  0
    0.0395    9.9007   26.5755 C   0  0  0  0  0  0  0  0  0  0  0  0
    4.6564   12.4352   24.1669 C   0  0  1  0  0  0  0  0  0  0  0  0
    5.2316   13.5269   25.0685 C   0  0  0  0  0  0  0  0  0  0  0  0
    6.6396   13.3712   25.2368 C   0  0  0  0  0  0  0  0  0  0  0  0
    5.8602   11.5357   23.9569 C   0  0  0  0  0  0  0  0  0  0  0  0
    7.0202   12.1193   24.5323 C   0  0  0  0  0  0  0  0  0  0  0  0
    8.2438   11.4664   24.3531 C   0  0  0  0  0  0  0  0  0  0  0  0
    8.3034   10.2671   23.6122 C   0  0  0  0  0  0  0  0  0  0  0  0
    7.1413    9.7015   23.0556 C   0  0  0  0  0  0  0  0  0  0  0  0
    5.9122   10.3330   23.2260 C   0  0  0  0  0  0  0  0  0  0  0  0
   -0.0515   11.4463   24.3326 C   0  0  0  0  0  0  0  0  0  0  0  0
   -1.1784   11.0358   25.0419 C   0  0  0  0  0  0  0  0  0  0  0  0
   -1.8972   12.2880   23.3122 C   0  0  0  0  0  0  0  0  0  0  0  0
   -0.5217   12.2435   23.2510 C   0  0  0  0  0  0  0  0  0  0  0  0
   14.2861   14.3584   26.2175 H   0  0  0  0  0  0  0  0  0  0  0  0
   11.5738   14.8581   29.3241 H   0  0  0  0  0  0  0  0  0  0  0  0
    8.8085   14.7192   28.3220 H   0  0  0  0  0  0  0  0  0  0  0  0
   12.4836   14.0987   24.4934 H   0  0  0  0  0  0  0  0  0  0  0  0
    3.4624   11.8638   25.7966 H   0  0  0  0  0  0  0  0  0  0  0  0
   -3.2413   11.3967   24.6946 H   0  0  0  0  0  0  0  0  0  0  0  0
    3.4290   14.6570   25.4825 H   0  0  0  0  0  0  0  0  0  0  0  0
    4.6364   16.3775   26.8090 H   0  0  0  0  0  0  0  0  0  0  0  0
    7.0640   16.2145   27.1165 H   0  0  0  0  0  0  0  0  0  0  0  0
    2.1814    9.8695   26.3905 H   0  0  0  0  0  0  0  0  0  0  0  0
    0.0347    9.2696   27.4645 H   0  0  0  0  0  0  0  0  0  0  0  0
    4.3608   12.8892   23.2126 H   0  0  0  0  0  0  0  0  0  0  0  0
    9.1697   11.8676   24.7485 H   0  0  0  0  0  0  0  0  0  0  0  0
    9.2620    9.7706   23.4501 H   0  0  0  0  0  0  0  0  0  0  0  0
    7.2129    8.7815   22.4795 H   0  0  0  0  0  0  0  0  0  0  0  0
    5.0117    9.9059   22.7817 H   0  0  0  0  0  0  0  0  0  0  0  0
   -2.6133   12.7788   22.6679 H   0  0  0  0  0  0  0  0  0  0  0  0
    0.0847   12.7292   22.4971 H   0  0  0  0  0  0  0  0  0  0  0  0
  1  2  2  0  0  0  0
  1  5  1  0  0  0  0
  1 35  1  0  0  0  0
  2  3  1  0  0  0  0
  3 11  2  0  0  0  0
  3 36  1  0  0  0  0
  4  7  2  0  0  0  0
  4 11  1  0  0  0  0
  4 37  1  0  0  0  0
  5  9  2  0  0  0  0
  5 38  1  0  0  0  0
  6  7  1  0  0  0  0
  6  9  1  0  0  0  0
  7 13  1  0  0  0  0
  8 17  1  0  0  0  0
  8 22  1  0  0  0  0
  8 39  1  0  0  0  0
  9 11  1  0  0  0  0
 10 21  1  0  0  0  0
 10 32  1  0  0  0  0
 12 32  2  0  0  0  0
 12 33  1  0  0  0  0
 12 40  1  0  0  0  0
 13 16  2  0  0  0  0
 13 24  1  0  0  0  0
 14 15  2  0  0  0  0
 14 23  1  0  0  0  0
 14 41  1  0  0  0  0
 15 16  1  0  0  0  0
 15 42  1  0  0  0  0
 16 43  1  0  0  0  0
 17 18  1  0  0  0  0
 17 19  2  0  0  0  0
 18 20  1  0  0  0  0
 18 31  2  0  0  0  0
 20 21  2  0  0  0  0
 20 44  1  0  0  0  0
 21 45  1  0  0  0  0
 22 23  1  0  0  0  0
 22 25  1  0  0  0  0
 22 46  1  6  0  0  0
 23 24  2  0  0  0  0
 24 26  1  0  0  0  0
 25 26  2  0  0  0  0
 25 30  1  0  0  0  0
 26 27  1  0  0  0  0
 27 28  2  0  0  0  0
 27 47  1  0  0  0  0
 28 29  1  0  0  0  0
 28 48  1  0  0  0  0
 29 30  2  0  0  0  0
 29 49  1  0  0  0  0
 30 50  1  0  0  0  0
 31 32  1  0  0  0  0
 31 34  1  0  0  0  0
 33 34  2  0  0  0  0
 33 51  1  0  0  0  0
 34 52  1  0  0  0  0
M  CHG  2   4   1  12   1
M  END
$$$$
