ZMR
 OpenBabel04051920393D

 43 43  0  0  1  0  0  0  0  0999 V2000
   20.2519  -30.4957   15.6137 C   0  0  0  0  0  0  0  0  0  0  0  0
   20.3345  -31.5820   14.9785 O   0  0  0  0  0  0  0  0  0  0  0  0
   20.4638  -29.3046   15.2329 O   0  0  0  0  0  0  0  0  0  0  0  0
   19.8084  -30.6312   17.1369 C   0  0  0  0  0  0  0  0  0  0  0  0
   19.6215  -29.5498   17.8886 C   0  0  0  0  0  0  0  0  0  0  0  0
   19.2973  -29.6132   19.3325 C   0  0  1  0  0  0  0  0  0  0  0  0
   19.3268  -31.0463   19.9019 C   0  0  1  0  0  0  0  0  0  0  0  0
   18.5248  -31.1691   21.1450 N   0  0  0  0  0  0  0  0  0  0  0  0
   19.0191  -31.9024   22.2127 C   0  0  0  0  0  0  0  0  0  0  0  0
   20.1361  -32.3511   22.2206 O   0  0  0  0  0  0  0  0  0  0  0  0
   18.0642  -32.0401   23.3681 C   0  0  0  0  0  0  0  0  0  0  0  0
   18.9246  -32.0773   18.8252 C   0  0  1  0  0  0  0  0  0  0  0  0
   19.6318  -31.9036   17.6004 O   0  0  0  0  0  0  0  0  0  0  0  0
   19.2070  -33.5280   19.2616 C   0  0  2  0  0  0  0  0  0  0  0  0
   20.5720  -33.6799   19.6869 O   0  0  0  0  0  0  0  0  0  0  0  0
   18.9472  -34.5298   18.1149 C   0  0  2  0  0  0  0  0  0  0  0  0
   17.5675  -34.4855   17.7064 O   0  0  0  0  0  0  0  0  0  0  0  0
   19.2999  -35.9486   18.5700 C   0  0  0  0  0  0  0  0  0  0  0  0
   19.1662  -36.8770   17.4921 O   0  0  0  0  0  0  0  0  0  0  0  0
   20.3733  -28.8196   19.9726 N   0  0  0  0  0  0  0  0  0  0  0  0
   20.2590  -27.7765   20.7632 C   0  0  0  0  0  0  0  0  0  0  0  0
   19.0723  -27.3342   21.1589 N   0  0  0  0  0  0  0  0  0  0  0  0
   21.3510  -27.1630   21.2062 N   0  0  0  0  0  0  0  0  0  0  0  0
   19.7888  -28.5694   17.4418 H   0  0  0  0  0  0  0  0  0  0  0  0
   18.3129  -29.1516   19.5402 H   0  0  0  0  0  0  0  0  0  0  0  0
   20.3734  -31.2091   20.1887 H   0  0  0  0  0  0  0  0  0  0  0  0
   17.5575  -30.8570   21.1678 H   0  0  0  0  0  0  0  0  0  0  0  0
   18.5681  -32.5893   24.1715 H   0  0  0  0  0  0  0  0  0  0  0  0
   17.1749  -32.5936   23.0640 H   0  0  0  0  0  0  0  0  0  0  0  0
   17.7711  -31.0559   23.7495 H   0  0  0  0  0  0  0  0  0  0  0  0
   17.8561  -31.9568   18.6419 H   0  0  0  0  0  0  0  0  0  0  0  0
   18.5512  -33.7838   20.1029 H   0  0  0  0  0  0  0  0  0  0  0  0
   20.7308  -33.1094   20.4619 H   0  0  0  0  0  0  0  0  0  0  0  0
   19.5834  -34.2843   17.2577 H   0  0  0  0  0  0  0  0  0  0  0  0
   17.4687  -35.0937   16.9509 H   0  0  0  0  0  0  0  0  0  0  0  0
   18.6408  -36.2722   19.3838 H   0  0  0  0  0  0  0  0  0  0  0  0
   20.3365  -35.9940   18.9176 H   0  0  0  0  0  0  0  0  0  0  0  0
   18.2460  -36.8579   17.1874 H   0  0  0  0  0  0  0  0  0  0  0  0
   21.3113  -29.1128   19.7327 H   0  0  0  0  0  0  0  0  0  0  0  0
   18.9654  -26.5351   21.7578 H   0  0  0  0  0  0  0  0  0  0  0  0
   22.2660  -27.4874   20.9157 H   0  0  0  0  0  0  0  0  0  0  0  0
   21.3055  -26.3663   21.8247 H   0  0  0  0  0  0  0  0  0  0  0  0
   18.2217  -27.7610   20.8123 H   0  0  0  0  0  0  0  0  0  0  0  0
  1  2  2  0  0  0  0
  1  3  1  0  0  0  0
  1  4  1  0  0  0  0
  4  5  2  0  0  0  0
  4 13  1  0  0  0  0
  5  6  1  0  0  0  0
  5 24  1  0  0  0  0
  6  7  1  0  0  0  0
  6 20  1  0  0  0  0
  6 25  1  1  0  0  0
  7  8  1  0  0  0  0
  7 12  1  0  0  0  0
  7 26  1  1  0  0  0
  8  9  1  0  0  0  0
  8 27  1  0  0  0  0
  9 10  2  0  0  0  0
  9 11  1  0  0  0  0
 11 28  1  0  0  0  0
 11 29  1  0  0  0  0
 11 30  1  0  0  0  0
 12 13  1  0  0  0  0
 12 14  1  0  0  0  0
 12 31  1  6  0  0  0
 14 15  1  0  0  0  0
 14 16  1  0  0  0  0
 14 32  1  1  0  0  0
 15 33  1  0  0  0  0
 16 17  1  0  0  0  0
 16 18  1  0  0  0  0
 16 34  1  6  0  0  0
 17 35  1  0  0  0  0
 18 19  1  0  0  0  0
 18 36  1  0  0  0  0
 18 37  1  0  0  0  0
 19 38  1  0  0  0  0
 20 21  1  0  0  0  0
 20 39  1  0  0  0  0
 21 22  2  0  0  0  0
 21 23  1  0  0  0  0
 22 40  1  0  0  0  0
 22 43  1  0  0  0  0
 23 41  1  0  0  0  0
 23 42  1  0  0  0  0
M  END
$$$$
