ZX6
 OpenBabel04051921003D

 48 50  0  0  1  0  0  0  0  0999 V2000
   -1.1643   25.1412   31.1198 C   0  0  1  0  0  0  0  0  0  0  0  0
   -1.7912   24.0742   30.4334 C   0  0  0  0  0  0  0  0  0  0  0  0
   -1.3136   22.7767   30.6149 C   0  0  0  0  0  0  0  0  0  0  0  0
   -0.2522   22.5229   31.4541 C   0  0  0  0  0  0  0  0  0  0  0  0
    0.3862   23.5572   32.1680 C   0  0  0  0  0  0  0  0  0  0  0  0
   -0.0917   24.8547   31.9618 C   0  0  2  0  0  0  0  0  0  0  0  0
    0.3275   26.0515   32.5005 N   0  3  0  0  0  0  0  0  0  0  0  0
   -0.4115   27.0768   31.9835 C   0  0  0  0  0  0  0  0  0  0  0  0
   -1.3529   26.5499   31.1195 C   0  0  2  0  0  0  0  0  0  0  0  0
   -2.3736   27.3627   30.3898 C   0  0  0  0  0  0  0  0  0  0  0  0
   -2.5682   27.0364   28.9141 C   0  0  0  0  0  0  0  0  0  0  0  0
   -3.5974   27.3573   28.3200 O   0  0  0  0  0  0  0  0  0  0  0  0
   -1.5045   26.4785   28.2215 N   0  0  0  0  0  0  0  0  0  0  0  0
   -1.6962   25.9520   26.8733 C   0  0  0  0  0  0  0  0  0  0  0  0
   -1.4734   27.0140   25.7889 C   0  0  1  0  0  0  0  0  0  0  0  0
   -0.0073   27.3960   25.7357 N   0  3  0  0  0  0  0  0  0  0  0  0
    0.2671   28.5048   24.7499 C   0  0  1  0  0  0  0  0  0  0  0  0
    1.7649   28.7510   24.7394 C   0  0  0  0  0  0  0  0  0  0  0  0
   -0.2469   28.1260   23.3409 C   0  0  1  0  0  0  0  0  0  0  0  0
    0.5484   27.0545   22.8070 O   0  0  0  0  0  0  0  0  0  0  0  0
   -1.7007   27.6528   23.3997 C   0  0  1  0  0  0  0  0  0  0  0  0
   -2.1364   27.2327   22.1061 O   0  0  0  0  0  0  0  0  0  0  0  0
   -1.8290   26.4921   24.3909 C   0  0  2  0  0  0  0  0  0  0  0  0
   -3.1304   25.9394   24.3504 O   0  0  0  0  0  0  0  0  0  0  0  0
   -2.6245   24.2702   29.7707 H   0  0  0  0  0  0  0  0  0  0  0  0
   -1.7808   21.9611   30.0567 H   0  0  0  0  0  0  0  0  0  0  0  0
    0.1104   21.5003   31.5900 H   0  0  0  0  0  0  0  0  0  0  0  0
    1.2073   23.3445   32.8497 H   0  0  0  0  0  0  0  0  0  0  0  0
    1.0766   26.1527   33.1714 H   0  0  0  0  0  0  0  0  0  0  0  0
   -0.2442   28.1022   32.2820 H   0  0  0  0  0  0  0  0  0  0  0  0
   -2.0889   28.4206   30.4395 H   0  0  0  0  0  0  0  0  0  0  0  0
   -3.3361   27.2517   30.9034 H   0  0  0  0  0  0  0  0  0  0  0  0
   -0.6890   26.2061   28.7640 H   0  0  0  0  0  0  0  0  0  0  0  0
   -2.7112   25.5483   26.7803 H   0  0  0  0  0  0  0  0  0  0  0  0
   -0.9872   25.1288   26.7368 H   0  0  0  0  0  0  0  0  0  0  0  0
   -2.0324   27.9263   26.0378 H   0  0  0  0  0  0  0  0  0  0  0  0
    0.2995   27.6748   26.6795 H   0  0  0  0  0  0  0  0  0  0  0  0
   -0.2673   29.3818   25.1229 H   0  0  0  0  0  0  0  0  0  0  0  0
    1.9984   29.5443   24.0230 H   0  0  0  0  0  0  0  0  0  0  0  0
    2.3246   27.8542   24.4487 H   0  0  0  0  0  0  0  0  0  0  0  0
    2.1128   29.0616   25.7280 H   0  0  0  0  0  0  0  0  0  0  0  0
   -0.1484   28.9916   22.6745 H   0  0  0  0  0  0  0  0  0  0  0  0
    0.2909   26.9346   21.8697 H   0  0  0  0  0  0  0  0  0  0  0  0
   -2.3473   28.4834   23.7056 H   0  0  0  0  0  0  0  0  0  0  0  0
   -1.6408   26.4447   21.8262 H   0  0  0  0  0  0  0  0  0  0  0  0
   -1.1367   25.6841   24.1182 H   0  0  0  0  0  0  0  0  0  0  0  0
   -3.3124   25.6832   23.4246 H   0  0  0  0  0  0  0  0  0  0  0  0
    0.5521   26.5678   25.4745 H   0  0  0  0  0  0  0  0  0  0  0  0
  1  2  1  6  0  0  0
  1  6  1  0  0  0  0
  1  9  1  0  0  0  0
  2  3  1  0  0  0  0
  2 25  1  0  0  0  0
  3  4  1  0  0  0  0
  3 26  1  0  0  0  0
  4  5  1  0  0  0  0
  4 27  1  0  0  0  0
  5 28  1  0  0  0  0
  6  5  1  1  0  0  0
  6  7  1  0  0  0  0
  7  8  1  0  0  0  0
  7 29  1  0  0  0  0
  8  9  1  0  0  0  0
  8 30  1  0  0  0  0
  9 10  1  1  0  0  0
 10 11  1  0  0  0  0
 10 31  1  0  0  0  0
 10 32  1  0  0  0  0
 11 12  2  0  0  0  0
 11 13  1  0  0  0  0
 13 14  1  0  0  0  0
 13 33  1  0  0  0  0
 14 15  1  0  0  0  0
 14 34  1  0  0  0  0
 14 35  1  0  0  0  0
 15 16  1  0  0  0  0
 15 23  1  0  0  0  0
 15 36  1  1  0  0  0
 16 17  1  0  0  0  0
 16 37  1  0  0  0  0
 16 48  1  0  0  0  0
 17 18  1  0  0  0  0
 17 19  1  0  0  0  0
 17 38  1  1  0  0  0
 18 39  1  0  0  0  0
 18 40  1  0  0  0  0
 18 41  1  0  0  0  0
 19 20  1  0  0  0  0
 19 21  1  0  0  0  0
 19 42  1  6  0  0  0
 20 43  1  0  0  0  0
 21 22  1  0  0  0  0
 21 23  1  0  0  0  0
 21 44  1  1  0  0  0
 22 45  1  0  0  0  0
 23 24  1  0  0  0  0
 23 46  1  6  0  0  0
 24 47  1  0  0  0  0
M  CHG  2   7   1  16   1
M  END
$$$$
