ZX7
 OpenBabel04051921023D

 45 47  0  0  1  0  0  0  0  0999 V2000
   -3.2815   25.8793   24.3042 O   0  0  0  0  0  0  0  0  0  0  0  0
   -1.9423   26.3522   24.3330 C   0  0  1  0  0  0  0  0  0  0  0  0
   -1.7968   27.5867   23.4329 C   0  0  2  0  0  0  0  0  0  0  0  0
   -2.1884   27.2179   22.1078 O   0  0  0  0  0  0  0  0  0  0  0  0
   -0.3398   28.0639   23.4261 C   0  0  2  0  0  0  0  0  0  0  0  0
    0.4693   27.0313   22.8454 O   0  0  0  0  0  0  0  0  0  0  0  0
    0.1657   28.3603   24.8563 C   0  0  2  0  0  0  0  0  0  0  0  0
    1.6654   28.6080   24.8864 C   0  0  0  0  0  0  0  0  0  0  0  0
   -0.1058   27.1822   25.7528 N   0  3  0  0  0  0  0  0  0  0  0  0
   -1.5487   26.7469   25.7538 C   0  0  2  0  0  0  0  0  0  0  0  0
   -1.7147   25.6049   26.7455 C   0  0  0  0  0  0  0  0  0  0  0  0
   -1.4286   26.0316   28.1112 N   0  0  0  0  0  0  0  0  0  0  0  0
   -1.3344   25.0122   29.0459 C   0  0  0  0  0  0  0  0  0  0  0  0
   -1.2864   23.8384   28.6923 O   0  0  0  0  0  0  0  0  0  0  0  0
   -1.3368   25.4208   30.4229 C   0  0  1  0  0  0  0  0  0  0  0  0
   -1.7951   24.6291   31.4664 C   0  0  0  0  0  0  0  0  0  0  0  0
   -1.6109   25.3271   32.6702 C   0  0  1  0  0  0  0  0  0  0  0  0
   -1.9112   25.0097   34.0045 C   0  0  0  0  0  0  0  0  0  0  0  0
   -1.5887   25.9325   35.0068 C   0  0  0  0  0  0  0  0  0  0  0  0
   -0.9756   27.1330   34.6765 C   0  0  0  0  0  0  0  0  0  0  0  0
   -0.6607   27.4671   33.3535 C   0  0  0  0  0  0  0  0  0  0  0  0
   -1.0109   26.5403   32.3674 C   0  0  1  0  0  0  0  0  0  0  0  0
   -0.8484   26.5796   30.9796 N   0  3  0  0  0  0  0  0  0  0  0  0
   -3.4650   25.6304   23.3734 H   0  0  0  0  0  0  0  0  0  0  0  0
   -1.3018   25.5336   23.9797 H   0  0  0  0  0  0  0  0  0  0  0  0
   -2.4687   28.3838   23.7775 H   0  0  0  0  0  0  0  0  0  0  0  0
   -2.2076   28.0181   21.5496 H   0  0  0  0  0  0  0  0  0  0  0  0
   -0.2327   28.9546   22.7983 H   0  0  0  0  0  0  0  0  0  0  0  0
    0.1334   26.8779   21.9369 H   0  0  0  0  0  0  0  0  0  0  0  0
   -0.3790   29.2060   25.2887 H   0  0  0  0  0  0  0  0  0  0  0  0
    2.0112   28.7921   25.9081 H   0  0  0  0  0  0  0  0  0  0  0  0
    1.9126   29.4799   24.2739 H   0  0  0  0  0  0  0  0  0  0  0  0
    2.2269   27.7507   24.4974 H   0  0  0  0  0  0  0  0  0  0  0  0
    0.4780   26.3877   25.4345 H   0  0  0  0  0  0  0  0  0  0  0  0
   -2.1372   27.6096   26.1039 H   0  0  0  0  0  0  0  0  0  0  0  0
   -1.0180   24.7990   26.4926 H   0  0  0  0  0  0  0  0  0  0  0  0
   -2.7301   25.1799   26.7047 H   0  0  0  0  0  0  0  0  0  0  0  0
   -1.8216   26.8995   28.4637 H   0  0  0  0  0  0  0  0  0  0  0  0
   -2.2254   23.6396   31.3526 H   0  0  0  0  0  0  0  0  0  0  0  0
   -2.3920   24.0657   34.2498 H   0  0  0  0  0  0  0  0  0  0  0  0
   -1.8425   25.7009   36.0345 H   0  0  0  0  0  0  0  0  0  0  0  0
   -0.7298   27.8341   35.4753 H   0  0  0  0  0  0  0  0  0  0  0  0
   -0.1687   28.4059   33.1210 H   0  0  0  0  0  0  0  0  0  0  0  0
   -0.3968   27.3429   30.4918 H   0  0  0  0  0  0  0  0  0  0  0  0
    0.1981   27.3661   26.7191 H   0  0  0  0  0  0  0  0  0  0  0  0
  1  2  1  0  0  0  0
  1 24  1  0  0  0  0
  2  3  1  0  0  0  0
  2 10  1  0  0  0  0
  2 25  1  6  0  0  0
  3  4  1  0  0  0  0
  3  5  1  0  0  0  0
  3 26  1  1  0  0  0
  4 27  1  0  0  0  0
  5  6  1  0  0  0  0
  5  7  1  0  0  0  0
  5 28  1  6  0  0  0
  6 29  1  0  0  0  0
  7  8  1  0  0  0  0
  7  9  1  0  0  0  0
  7 30  1  1  0  0  0
  8 31  1  0  0  0  0
  8 32  1  0  0  0  0
  8 33  1  0  0  0  0
  9 10  1  0  0  0  0
  9 34  1  0  0  0  0
  9 45  1  0  0  0  0
 10 11  1  0  0  0  0
 10 35  1  1  0  0  0
 11 12  1  0  0  0  0
 11 36  1  0  0  0  0
 11 37  1  0  0  0  0
 12 13  1  0  0  0  0
 12 38  1  0  0  0  0
 13 14  2  0  0  0  0
 15 13  1  1  0  0  0
 15 16  1  0  0  0  0
 15 23  1  0  0  0  0
 16 39  1  0  0  0  0
 17 16  1  1  0  0  0
 17 18  1  0  0  0  0
 17 22  1  0  0  0  0
 18 19  1  0  0  0  0
 18 40  1  0  0  0  0
 19 20  1  0  0  0  0
 19 41  1  0  0  0  0
 20 21  1  0  0  0  0
 20 42  1  0  0  0  0
 21 43  1  0  0  0  0
 22 21  1  1  0  0  0
 22 23  1  0  0  0  0
 23 44  1  0  0  0  0
M  CHG  2   9   1  23   1
M  END
$$$$
