ZXD
 OpenBabel04051921083D

 30 30  0  0  1  0  0  0  0  0999 V2000
    1.5186   29.4254   26.9425 C   0  0  0  0  0  0  0  0  0  0  0  0
    1.2643   28.8937   25.5304 C   0  0  0  0  0  0  0  0  0  0  0  0
    2.3826   27.9134   25.1592 C   0  0  0  0  0  0  0  0  0  0  0  0
   -0.1776   28.3309   25.4207 C   0  0  2  0  0  0  0  0  0  0  0  0
   -0.2590   27.0184   26.1523 N   0  3  0  0  0  0  0  0  0  0  0  0
   -1.6275   26.4434   26.1887 C   0  0  0  0  0  0  0  0  0  0  0  0
   -2.1415   26.1966   24.7631 C   0  0  1  0  0  0  0  0  0  0  0  0
   -3.4287   25.6115   24.8347 O   0  0  0  0  0  0  0  0  0  0  0  0
   -2.0897   27.5206   23.9580 C   0  0  2  0  0  0  0  0  0  0  0  0
   -2.4589   27.2587   22.5998 O   0  0  0  0  0  0  0  0  0  0  0  0
   -0.6616   28.0899   23.9671 C   0  0  2  0  0  0  0  0  0  0  0  0
    0.1878   27.1354   23.3331 O   0  0  0  0  0  0  0  0  0  0  0  0
    2.5081   29.8933   27.0098 H   0  0  0  0  0  0  0  0  0  0  0  0
    1.4806   28.6279   27.6928 H   0  0  0  0  0  0  0  0  0  0  0  0
    0.7747   30.1826   27.2152 H   0  0  0  0  0  0  0  0  0  0  0  0
    1.3368   29.7530   24.8438 H   0  0  0  0  0  0  0  0  0  0  0  0
    2.3079   27.5568   24.1292 H   0  0  0  0  0  0  0  0  0  0  0  0
    2.4027   27.0431   25.8250 H   0  0  0  0  0  0  0  0  0  0  0  0
    3.3641   28.4039   25.2424 H   0  0  0  0  0  0  0  0  0  0  0  0
   -0.8751   29.0171   25.9155 H   0  0  0  0  0  0  0  0  0  0  0  0
    0.3521   26.3521   25.6591 H   0  0  0  0  0  0  0  0  0  0  0  0
   -2.2793   27.1374   26.7372 H   0  0  0  0  0  0  0  0  0  0  0  0
   -1.5826   25.5099   26.7628 H   0  0  0  0  0  0  0  0  0  0  0  0
   -1.5104   25.4448   24.2784 H   0  0  0  0  0  0  0  0  0  0  0  0
   -4.1097   26.2992   24.9630 H   0  0  0  0  0  0  0  0  0  0  0  0
   -2.8102   28.2327   24.3690 H   0  0  0  0  0  0  0  0  0  0  0  0
   -2.5858   28.1053   22.1321 H   0  0  0  0  0  0  0  0  0  0  0  0
   -0.6101   29.0096   23.3810 H   0  0  0  0  0  0  0  0  0  0  0  0
   -0.1760   26.9676   22.4376 H   0  0  0  0  0  0  0  0  0  0  0  0
    0.1076   27.0970   27.1103 H   0  0  0  0  0  0  0  0  0  0  0  0
  1  2  1  0  0  0  0
  1 13  1  0  0  0  0
  1 14  1  0  0  0  0
  1 15  1  0  0  0  0
  2  3  1  0  0  0  0
  2  4  1  0  0  0  0
  2 16  1  0  0  0  0
  3 17  1  0  0  0  0
  3 18  1  0  0  0  0
  3 19  1  0  0  0  0
  4  5  1  0  0  0  0
  4 11  1  0  0  0  0
  4 20  1  1  0  0  0
  5  6  1  0  0  0  0
  5 21  1  0  0  0  0
  5 30  1  0  0  0  0
  6  7  1  0  0  0  0
  6 22  1  0  0  0  0
  6 23  1  0  0  0  0
  7  8  1  0  0  0  0
  7  9  1  0  0  0  0
  7 24  1  6  0  0  0
  8 25  1  0  0  0  0
  9 10  1  0  0  0  0
  9 11  1  0  0  0  0
  9 26  1  1  0  0  0
 10 27  1  0  0  0  0
 11 12  1  0  0  0  0
 11 28  1  6  0  0  0
 12 29  1  0  0  0  0
M  CHG  1   5   1
M  END
$$$$
