ZY7
 OpenBabel04051920063D

 43 45  0  0  0  0  0  0  0  0999 V2000
   30.3207   -6.7077   62.7106 C   0  0  0  0  0  0  0  0  0  0  0  0
   31.0307   -7.2990   63.8891 C   0  0  0  0  0  0  0  0  0  0  0  0
   30.6535   -8.5862   64.3784 C   0  0  0  0  0  0  0  0  0  0  0  0
   29.6167   -9.2297   63.7267 O   0  0  0  0  0  0  0  0  0  0  0  0
   29.2103  -10.5391   64.1186 C   0  0  0  0  0  0  0  0  0  0  0  0
   31.3244   -9.1367   65.4861 C   0  0  0  0  0  0  0  0  0  0  0  0
   32.0983   -6.6441   64.5300 C   0  0  0  0  0  0  0  0  0  0  0  0
   32.7404   -7.1795   65.6437 C   0  0  0  0  0  0  0  0  0  0  0  0
   32.3561   -8.4160   66.1268 C   0  0  0  0  0  0  0  0  0  0  0  0
   32.9672   -9.0147   67.2054 O   0  0  0  0  0  0  0  0  0  0  0  0
   30.3116   -5.4594   62.2757 C   0  0  0  0  0  0  0  0  0  0  0  0
   31.0142   -4.2707   62.8769 C   0  0  0  0  0  0  0  0  0  0  0  0
   30.0180   -3.1714   63.1318 C   0  0  0  0  0  0  0  0  0  0  0  0
   29.5300   -2.6923   61.7869 C   0  0  0  0  0  0  0  0  0  0  0  0
   29.0332   -3.8063   60.9569 N   0  0  0  0  0  0  0  0  0  0  0  0
   29.4331   -5.0393   61.1388 C   0  0  0  0  0  0  0  0  0  0  0  0
   29.0018   -5.9835   60.0770 C   0  0  0  0  0  0  0  0  0  0  0  0
   27.6593   -6.1132   59.7710 C   0  0  0  0  0  0  0  0  0  0  0  0
   27.1519   -6.8933   58.7705 N   0  0  0  0  0  0  0  0  0  0  0  0
   28.0490   -7.5527   58.0070 C   0  0  0  0  0  0  0  0  0  0  0  0
   29.4105   -7.4552   58.2053 C   0  0  0  0  0  0  0  0  0  0  0  0
   29.8999   -6.6586   59.2532 C   0  0  0  0  0  0  0  0  0  0  0  0
   33.5430   -8.1371   68.1851 C   0  0  0  0  0  0  0  0  0  0  0  0
   29.7143   -7.4366   62.1570 H   0  0  0  0  0  0  0  0  0  0  0  0
   28.3791  -10.8615   63.4726 H   0  0  0  0  0  0  0  0  0  0  0  0
   28.8478  -10.5548   65.1552 H   0  0  0  0  0  0  0  0  0  0  0  0
   30.0253  -11.2650   63.9958 H   0  0  0  0  0  0  0  0  0  0  0  0
   31.0439  -10.1088   65.8768 H   0  0  0  0  0  0  0  0  0  0  0  0
   32.5200   -5.7112   64.2043 H   0  0  0  0  0  0  0  0  0  0  0  0
   33.5421   -6.6225   66.1084 H   0  0  0  0  0  0  0  0  0  0  0  0
   31.8264   -3.9500   62.2176 H   0  0  0  0  0  0  0  0  0  0  0  0
   31.4316   -4.4810   63.8405 H   0  0  0  0  0  0  0  0  0  0  0  0
   30.4799   -2.3514   63.6922 H   0  0  0  0  0  0  0  0  0  0  0  0
   29.1735   -3.5625   63.7083 H   0  0  0  0  0  0  0  0  0  0  0  0
   30.3401   -2.1930   61.2402 H   0  0  0  0  0  0  0  0  0  0  0  0
   28.7235   -1.9641   61.9109 H   0  0  0  0  0  0  0  0  0  0  0  0
   26.9226   -5.5732   60.3672 H   0  0  0  0  0  0  0  0  0  0  0  0
   27.6431   -8.1801   57.2098 H   0  0  0  0  0  0  0  0  0  0  0  0
   30.1016   -7.9946   57.5561 H   0  0  0  0  0  0  0  0  0  0  0  0
   30.9657   -6.5650   59.4069 H   0  0  0  0  0  0  0  0  0  0  0  0
   33.9969   -8.7516   68.9708 H   0  0  0  0  0  0  0  0  0  0  0  0
   32.7686   -7.5084   68.6451 H   0  0  0  0  0  0  0  0  0  0  0  0
   34.3372   -7.5037   67.7667 H   0  0  0  0  0  0  0  0  0  0  0  0
  1  2  1  0  0  0  0
  1 11  2  0  0  0  0
  1 24  1  0  0  0  0
  2  3  2  0  0  0  0
  2  7  1  0  0  0  0
  3  4  1  0  0  0  0
  3  6  1  0  0  0  0
  4  5  1  0  0  0  0
  5 25  1  0  0  0  0
  5 26  1  0  0  0  0
  5 27  1  0  0  0  0
  6  9  2  0  0  0  0
  6 28  1  0  0  0  0
  7  8  2  0  0  0  0
  7 29  1  0  0  0  0
  8  9  1  0  0  0  0
  8 30  1  0  0  0  0
  9 10  1  0  0  0  0
 10 23  1  0  0  0  0
 11 12  1  0  0  0  0
 11 16  1  0  0  0  0
 12 13  1  0  0  0  0
 12 31  1  0  0  0  0
 12 32  1  0  0  0  0
 13 14  1  0  0  0  0
 13 33  1  0  0  0  0
 13 34  1  0  0  0  0
 14 15  1  0  0  0  0
 14 35  1  0  0  0  0
 14 36  1  0  0  0  0
 15 16  2  0  0  0  0
 16 17  1  0  0  0  0
 17 18  2  0  0  0  0
 17 22  1  0  0  0  0
 18 19  1  0  0  0  0
 18 37  1  0  0  0  0
 19 20  2  0  0  0  0
 20 21  1  0  0  0  0
 20 38  1  0  0  0  0
 21 22  2  0  0  0  0
 21 39  1  0  0  0  0
 22 40  1  0  0  0  0
 23 41  1  0  0  0  0
 23 42  1  0  0  0  0
 23 43  1  0  0  0  0
M  END
$$$$
