ZZL
 OpenBabel04051920073D

 48 52  0  0  0  0  0  0  0  0999 V2000
    0.3148   -8.1779   -4.3227 C   0  0  0  0  0  0  0  0  0  0  0  0
    1.5888  -10.2092   -4.3714 C   0  0  0  0  0  0  0  0  0  0  0  0
    1.0511  -12.5159   -5.1676 C   0  0  0  0  0  0  0  0  0  0  0  0
    1.7094  -14.4555   -3.8838 C   0  0  0  0  0  0  0  0  0  0  0  0
    2.2703  -13.6193   -2.9170 C   0  0  0  0  0  0  0  0  0  0  0  0
    2.2172  -12.2369   -3.0827 C   0  0  0  0  0  0  0  0  0  0  0  0
    2.9123   -9.5544   -4.6374 C   0  0  0  0  0  0  0  0  0  0  0  0
    5.1010   -9.7337   -5.6952 C   0  0  0  0  0  0  0  0  0  0  0  0
    5.5096   -8.5663   -5.0741 C   0  0  0  0  0  0  0  0  0  0  0  0
    9.6231   -5.0006   -0.1589 O   0  0  0  0  0  0  0  0  0  0  0  0
    8.7886   -4.1244    0.2211 C   0  0  0  0  0  0  0  0  0  0  0  0
    9.0781   -2.9849    0.7131 O   0  0  0  0  0  0  0  0  0  0  0  0
    7.3149   -4.4554    0.0805 C   0  0  0  0  0  0  0  0  0  0  0  0
    6.8979   -5.6772   -0.4688 C   0  0  0  0  0  0  0  0  0  0  0  0
    5.5339   -5.9772   -0.6209 C   0  0  0  0  0  0  0  0  0  0  0  0
    4.5398   -5.0795   -0.2181 C   0  0  0  0  0  0  0  0  0  0  0  0
    3.1642   -5.2964   -0.4180 N   0  0  0  0  0  0  0  0  0  0  0  0
    2.4660   -6.0684   -1.3458 C   0  0  0  0  0  0  0  0  0  0  0  0
    1.1351   -5.9099   -1.4010 N   0  0  0  0  0  0  0  0  0  0  0  0
    0.4724   -6.6032   -2.3559 C   0  0  0  0  0  0  0  0  0  0  0  0
    1.0706   -7.4588   -3.2570 C   0  0  0  0  0  0  0  0  0  0  0  0
    0.4454   -9.6279   -4.2367 N   0  0  0  0  0  0  0  0  0  0  0  0
    1.6046  -11.6801   -4.2027 C   0  0  0  0  0  0  0  0  0  0  0  0
    0.5191  -12.0126   -6.2905 F   0  0  0  0  0  0  0  0  0  0  0  0
    1.1039  -13.9015   -5.0144 C   0  0  0  0  0  0  0  0  0  0  0  0
    2.7816  -11.4548   -2.1523 F   0  0  0  0  0  0  0  0  0  0  0  0
    3.8174  -10.2321   -5.4804 C   0  0  0  0  0  0  0  0  0  0  0  0
    6.1822  -10.5753   -6.7339 Cl  0  0  0  0  0  0  0  0  0  0  0  0
    4.6136   -7.8879   -4.2523 C   0  0  0  0  0  0  0  0  0  0  0  0
    3.2962   -8.3519   -4.0180 C   0  0  0  0  0  0  0  0  0  0  0  0
    2.4357   -7.5645   -3.1221 C   0  0  0  0  0  0  0  0  0  0  0  0
    3.1171   -6.8772   -2.1806 N   0  0  0  0  0  0  0  0  0  0  0  0
    4.9620   -3.8568    0.3275 C   0  0  0  0  0  0  0  0  0  0  0  0
    6.3237   -3.5498    0.4732 C   0  0  0  0  0  0  0  0  0  0  0  0
    0.5846   -7.8076   -5.3200 H   0  0  0  0  0  0  0  0  0  0  0  0
   -0.7546   -7.9538   -4.2143 H   0  0  0  0  0  0  0  0  0  0  0  0
    1.7518  -15.5351   -3.7595 H   0  0  0  0  0  0  0  0  0  0  0  0
    2.7544  -14.0326   -2.0365 H   0  0  0  0  0  0  0  0  0  0  0  0
    6.5127   -8.1718   -5.2098 H   0  0  0  0  0  0  0  0  0  0  0  0
    7.6497   -6.4000   -0.7850 H   0  0  0  0  0  0  0  0  0  0  0  0
    5.2750   -6.9413   -1.0471 H   0  0  0  0  0  0  0  0  0  0  0  0
    2.5321   -4.7307    0.1231 H   0  0  0  0  0  0  0  0  0  0  0  0
   -0.5998   -6.4254   -2.3790 H   0  0  0  0  0  0  0  0  0  0  0  0
    0.6819  -14.5414   -5.7840 H   0  0  0  0  0  0  0  0  0  0  0  0
    3.5357  -11.1562   -5.9765 H   0  0  0  0  0  0  0  0  0  0  0  0
    4.9600   -6.9719   -3.7665 H   0  0  0  0  0  0  0  0  0  0  0  0
    4.2376   -3.1057    0.6258 H   0  0  0  0  0  0  0  0  0  0  0  0
    6.6255   -2.5885    0.8866 H   0  0  0  0  0  0  0  0  0  0  0  0
  1 21  1  0  0  0  0
  1 22  1  0  0  0  0
  1 35  1  0  0  0  0
  1 36  1  0  0  0  0
  2  7  1  0  0  0  0
  2 22  2  0  0  0  0
  2 23  1  0  0  0  0
  3 23  2  0  0  0  0
  3 24  1  0  0  0  0
  3 25  1  0  0  0  0
  4  5  1  0  0  0  0
  4 25  2  0  0  0  0
  4 37  1  0  0  0  0
  5  6  2  0  0  0  0
  5 38  1  0  0  0  0
  6 23  1  0  0  0  0
  6 26  1  0  0  0  0
  7 27  2  0  0  0  0
  7 30  1  0  0  0  0
  8  9  2  0  0  0  0
  8 27  1  0  0  0  0
  8 28  1  0  0  0  0
  9 29  1  0  0  0  0
  9 39  1  0  0  0  0
 10 11  2  0  0  0  0
 11 12  1  0  0  0  0
 11 13  1  0  0  0  0
 13 14  2  0  0  0  0
 13 34  1  0  0  0  0
 14 15  1  0  0  0  0
 14 40  1  0  0  0  0
 15 16  2  0  0  0  0
 15 41  1  0  0  0  0
 16 17  1  0  0  0  0
 16 33  1  0  0  0  0
 17 18  1  0  0  0  0
 17 42  1  0  0  0  0
 18 19  2  0  0  0  0
 18 32  1  0  0  0  0
 19 20  1  0  0  0  0
 20 21  2  0  0  0  0
 20 43  1  0  0  0  0
 21 31  1  0  0  0  0
 25 44  1  0  0  0  0
 27 45  1  0  0  0  0
 29 30  2  0  0  0  0
 29 46  1  0  0  0  0
 30 31  1  0  0  0  0
 31 32  2  0  0  0  0
 33 34  2  0  0  0  0
 33 47  1  0  0  0  0
 34 48  1  0  0  0  0
M  END
$$$$
