4FCR_0TM_A_301
 OpenBabel03301717303D

 47 49  0  0  0  0  0  0  0  0999 V2000
   33.7141    6.8441   23.3188 C   0  0  0  0  0  0  0  0  0  0  0  0
   34.5151    8.0181   23.4275 O   0  0  0  0  0  0  0  0  0  0  0  0
   33.8909    9.2155   23.7050 C   0  0  0  0  0  0  0  0  0  0  0  0
   32.5613    9.3234   24.1442 C   0  0  0  0  0  0  0  0  0  0  0  0
   34.6581   10.3913   23.5828 C   0  0  0  0  0  0  0  0  0  0  0  0
   35.9773   10.2378   23.1983 O   0  0  0  0  0  0  0  0  0  0  0  0
   36.8586   11.2925   23.5634 C   0  0  0  0  0  0  0  0  0  0  0  0
   34.0670   11.6447   23.8333 C   0  0  0  0  0  0  0  0  0  0  0  0
   32.7377   11.7453   24.2595 C   0  0  0  0  0  0  0  0  0  0  0  0
   32.0931   13.3342   24.5756 Cl  0  0  0  0  0  0  0  0  0  0  0  0
   31.9553   10.5882   24.4050 C   0  0  0  0  0  0  0  0  0  0  0  0
   30.5771   10.6277   24.8831 C   0  0  0  0  0  0  0  0  0  0  0  0
   30.3635   10.0584   26.0890 N   0  0  0  0  0  0  0  0  0  0  0  0
   29.5026   11.1948   24.1757 C   0  0  0  0  0  0  0  0  0  0  0  0
   29.2919   11.8278   22.9372 C   0  0  0  0  0  0  0  0  0  0  0  0
   30.2528   12.1087   21.9468 C   0  0  0  0  0  0  0  0  0  0  0  0
   31.0688   12.3456   21.1234 N   0  0  0  0  0  0  0  0  0  0  0  0
   27.9618   12.1443   22.8512 C   0  0  0  0  0  0  0  0  0  0  0  0
   27.2960   11.6944   23.9664 N   0  3  0  0  0  0  0  0  0  0  0  0
   28.2539   11.1170   24.7716 C   0  0  0  0  0  0  0  0  0  0  0  0
   28.0079   10.5377   25.9434 N   0  0  0  0  0  0  0  0  0  0  0  0
   29.0977   10.0339   26.5583 C   0  0  0  0  0  0  0  0  0  0  0  0
   28.6786    9.3264   28.1367 S   0  0  0  0  0  0  0  0  0  0  0  0
   30.1311    8.3638   28.5877 C   0  0  0  0  0  0  0  0  0  0  0  0
   30.4149    7.1944   27.6672 C   0  0  0  0  0  0  0  0  0  0  0  0
   29.6054    6.8064   26.8293 O   0  0  0  0  0  0  0  0  0  0  0  0
   31.6509    6.5549   27.8428 N   0  0  0  0  0  0  0  0  0  0  0  0
   32.6125    6.9635   28.8561 C   0  0  0  0  0  0  0  0  0  0  0  0
   31.9872    5.4306   26.9734 C   0  0  0  0  0  0  0  0  0  0  0  0
   34.3568    5.9740   23.1122 H   0  0  0  0  0  0  0  0  0  0  0  0
   32.9954    6.9314   22.4951 H   0  0  0  0  0  0  0  0  0  0  0  0
   33.1784    6.6397   24.2515 H   0  0  0  0  0  0  0  0  0  0  0  0
   31.9803    8.4216   24.3248 H   0  0  0  0  0  0  0  0  0  0  0  0
   37.8776   11.0763   23.2127 H   0  0  0  0  0  0  0  0  0  0  0  0
   36.8908   11.4054   24.6531 H   0  0  0  0  0  0  0  0  0  0  0  0
   36.5481   12.2343   23.1040 H   0  0  0  0  0  0  0  0  0  0  0  0
   34.6226   12.5571   23.6597 H   0  0  0  0  0  0  0  0  0  0  0  0
   27.4707   12.6688   22.0517 H   0  0  0  0  0  0  0  0  0  0  0  0
   26.2908   11.7679   24.1489 H   0  0  0  0  0  0  0  0  0  0  0  0
   29.9606    7.9659   29.5996 H   0  0  0  0  0  0  0  0  0  0  0  0
   30.9882    9.0346   28.6043 H   0  0  0  0  0  0  0  0  0  0  0  0
   32.2355    7.8050   29.4365 H   0  0  0  0  0  0  0  0  0  0  0  0
   33.5474    7.2688   28.3828 H   0  0  0  0  0  0  0  0  0  0  0  0
   32.7953    6.1404   29.5489 H   0  0  0  0  0  0  0  0  0  0  0  0
   31.1783    5.2331   26.2590 H   0  0  0  0  0  0  0  0  0  0  0  0
   32.1463    4.5317   27.5754 H   0  0  0  0  0  0  0  0  0  0  0  0
   32.8977    5.6580   26.4119 H   0  0  0  0  0  0  0  0  0  0  0  0
  1  2  1  0  0  0  0
  1 30  1  0  0  0  0
  1 31  1  0  0  0  0
  1 32  1  0  0  0  0
  2  3  1  0  0  0  0
  3  4  2  0  0  0  0
  3  5  1  0  0  0  0
  4 11  1  0  0  0  0
  4 33  1  0  0  0  0
  5  6  1  0  0  0  0
  5  8  2  0  0  0  0
  6  7  1  0  0  0  0
  7 34  1  0  0  0  0
  7 35  1  0  0  0  0
  7 36  1  0  0  0  0
  8  9  1  0  0  0  0
  8 37  1  0  0  0  0
  9 10  1  0  0  0  0
  9 11  2  0  0  0  0
 11 12  1  0  0  0  0
 12 13  1  0  0  0  0
 12 14  2  0  0  0  0
 13 22  1  0  0  0  0
 14 15  1  0  0  0  0
 14 20  1  0  0  0  0
 15 16  1  0  0  0  0
 15 18  2  0  0  0  0
 16 17  3  0  0  0  0
 18 19  1  0  0  0  0
 18 38  1  0  0  0  0
 19 20  2  0  0  0  0
 19 39  1  0  0  0  0
 20 21  1  0  0  0  0
 21 22  2  0  0  0  0
 22 23  1  0  0  0  0
 23 24  1  0  0  0  0
 24 25  1  0  0  0  0
 24 40  1  0  0  0  0
 24 41  1  0  0  0  0
 25 26  2  0  0  0  0
 25 27  1  0  0  0  0
 27 28  1  0  0  0  0
 27 29  1  0  0  0  0
 28 42  1  0  0  0  0
 28 43  1  0  0  0  0
 28 44  1  0  0  0  0
 29 45  1  0  0  0  0
 29 46  1  0  0  0  0
 29 47  1  0  0  0  0
M  CHG  1  19   1
M  END
$$$$
