2BYH_2D7_A_1226
 OpenBabel03301717003D

 40 42  0  0  0  0  0  0  0  0999 V2000
    5.6648   -2.4819    5.5342 O   0  0  0  0  0  0  0  0  0  0  0  0
    4.7813   -2.4685    6.3982 C   0  0  0  0  0  0  0  0  0  0  0  0
    3.9721   -3.7032    6.6791 C   0  0  0  0  0  0  0  0  0  0  0  0
    4.5111   -1.2318    7.1830 C   0  0  0  0  0  0  0  0  0  0  0  0
    3.5283   -1.2283    8.1701 C   0  0  0  0  0  0  0  0  0  0  0  0
    3.2457   -0.0801    8.8974 C   0  0  0  0  0  0  0  0  0  0  0  0
    5.2304   -0.0551    6.9509 C   0  0  0  0  0  0  0  0  0  0  0  0
    4.9477    1.0963    7.6867 C   0  0  0  0  0  0  0  0  0  0  0  0
    3.9301    1.0935    8.6420 C   0  0  0  0  0  0  0  0  0  0  0  0
    3.7640    2.2724    9.3721 N   0  0  0  0  0  0  0  0  0  0  0  0
    2.8189    2.5496   10.3472 C   0  0  0  0  0  0  0  0  0  0  0  0
    1.8611    1.8623   10.5547 O   0  0  0  0  0  0  0  0  0  0  0  0
    3.1204    3.7307   11.1667 C   0  0  0  0  0  0  0  0  0  0  0  0
    2.1574    4.6088   11.7346 C   0  0  0  0  0  0  0  0  0  0  0  0
    2.7242    5.5234   12.5409 N   0  0  0  0  0  0  0  0  0  0  0  0
    4.0516    5.2359   12.4959 N   0  3  0  0  0  0  0  0  0  0  0  0
    4.3385    4.1528   11.7001 C   0  0  0  0  0  0  0  0  0  0  0  0
    5.7100    3.6651   11.5622 C   0  0  0  0  0  0  0  0  0  0  0  0
    5.9123    2.2998   11.3635 C   0  0  0  0  0  0  0  0  0  0  0  0
    7.1706    1.7796   11.1135 C   0  0  0  0  0  0  0  0  0  0  0  0
    7.3875    0.0871   10.8848 Cl  0  0  0  0  0  0  0  0  0  0  0  0
    8.2697    2.6237   11.0847 C   0  0  0  0  0  0  0  0  0  0  0  0
    9.4880    2.0685   10.8169 O   0  0  0  0  0  0  0  0  0  0  0  0
    8.1213    3.9802   11.3281 C   0  0  0  0  0  0  0  0  0  0  0  0
    6.8472    4.4969   11.5720 C   0  0  0  0  0  0  0  0  0  0  0  0
    6.7362    5.8434   11.8187 O   0  0  0  0  0  0  0  0  0  0  0  0
    3.2335   -3.5297    7.4494 H   0  0  0  0  0  0  0  0  0  0  0  0
    4.6232   -4.5013    7.0318 H   0  0  0  0  0  0  0  0  0  0  0  0
    3.4325   -4.0142    5.7859 H   0  0  0  0  0  0  0  0  0  0  0  0
    2.9504   -2.1037    8.4037 H   0  0  0  0  0  0  0  0  0  0  0  0
    2.5156   -0.1362    9.6951 H   0  0  0  0  0  0  0  0  0  0  0  0
    6.0089   -0.0262    6.2005 H   0  0  0  0  0  0  0  0  0  0  0  0
    5.5471    1.9893    7.5329 H   0  0  0  0  0  0  0  0  0  0  0  0
    4.4657    2.9685    9.2171 H   0  0  0  0  0  0  0  0  0  0  0  0
    1.0713    4.5819   11.5846 H   0  0  0  0  0  0  0  0  0  0  0  0
    4.7350    5.8068   13.0051 H   0  0  0  0  0  0  0  0  0  0  0  0
    5.0701    1.6137   11.3983 H   0  0  0  0  0  0  0  0  0  0  0  0
   10.1939    2.7286   10.8129 H   0  0  0  0  0  0  0  0  0  0  0  0
    8.9890    4.6278   11.3246 H   0  0  0  0  0  0  0  0  0  0  0  0
    7.6135    6.2713   11.7846 H   0  0  0  0  0  0  0  0  0  0  0  0
  1  2  2  0  0  0  0
  2  3  1  0  0  0  0
  2  4  1  0  0  0  0
  3 27  1  0  0  0  0
  3 28  1  0  0  0  0
  3 29  1  0  0  0  0
  4  5  2  0  0  0  0
  4  7  1  0  0  0  0
  5  6  1  0  0  0  0
  5 30  1  0  0  0  0
  6  9  2  0  0  0  0
  6 31  1  0  0  0  0
  7  8  2  0  0  0  0
  7 32  1  0  0  0  0
  8  9  1  0  0  0  0
  8 33  1  0  0  0  0
  9 10  1  0  0  0  0
 10 11  1  0  0  0  0
 10 34  1  0  0  0  0
 11 12  2  0  0  0  0
 11 13  1  0  0  0  0
 13 14  2  0  0  0  0
 13 17  1  0  0  0  0
 14 15  1  0  0  0  0
 14 35  1  0  0  0  0
 15 16  1  0  0  0  0
 16 17  2  0  0  0  0
 16 36  1  0  0  0  0
 17 18  1  0  0  0  0
 18 19  2  0  0  0  0
 18 25  1  0  0  0  0
 19 20  1  0  0  0  0
 19 37  1  0  0  0  0
 20 21  1  0  0  0  0
 20 22  2  0  0  0  0
 22 23  1  0  0  0  0
 22 24  1  0  0  0  0
 23 38  1  0  0  0  0
 24 25  2  0  0  0  0
 24 39  1  0  0  0  0
 25 26  1  0  0  0  0
 26 40  1  0  0  0  0
M  CHG  1  16   1
M  END
$$$$
