4U93_990_A_301
 OpenBabel03301717353D

 46 49  0  0  1  0  0  0  0  0999 V2000
   24.8528   22.3848   10.0545 F   0  0  0  0  0  0  0  0  0  0  0  0
   26.0310   22.9874   10.2447 C   0  0  0  0  0  0  0  0  0  0  0  0
   26.3410   23.5014   11.4964 C   0  0  0  0  0  0  0  0  0  0  0  0
   27.5700   24.1402   11.7414 C   0  0  0  0  0  0  0  0  0  0  0  0
   27.8361   24.6767   13.0937 C   0  0  0  0  0  0  0  0  0  0  0  0
   29.0970   24.5274   13.5849 N   0  0  0  0  0  0  0  0  0  0  0  0
   29.3645   25.0168   14.8206 C   0  0  0  0  0  0  0  0  0  0  0  0
   30.6396   24.8943   15.3505 O   0  0  0  0  0  0  0  0  0  0  0  0
   31.6226   24.3212   14.4796 C   0  0  0  0  0  0  0  0  0  0  0  0
   28.4105   25.6390   15.6068 C   0  0  0  0  0  0  0  0  0  0  0  0
   27.1209   25.7822   15.0940 C   0  0  0  0  0  0  0  0  0  0  0  0
   26.8297   25.2902   13.8287 C   0  0  0  0  0  0  0  0  0  0  0  0
   26.9195   23.0946    9.1891 C   0  0  0  0  0  0  0  0  0  0  0  0
   28.1345   23.7258    9.3881 C   0  0  0  0  0  0  0  0  0  0  0  0
   28.4707   24.2456   10.6531 C   0  0  0  0  0  0  0  0  0  0  0  0
   29.8228   24.9041   10.7888 C   0  0  2  0  0  0  0  0  0  0  0  0
   30.0279   25.8211    9.6885 N   0  0  0  0  0  0  0  0  0  0  0  0
   31.2554   26.3655    9.3899 C   0  0  0  0  0  0  0  0  0  0  0  0
   31.3507   27.2051    8.5346 O   0  0  0  0  0  0  0  0  0  0  0  0
   30.9637   23.8872   10.7709 C   0  0  0  0  0  0  0  0  0  0  0  0
   32.3110   24.5967   10.7365 C   0  0  0  0  0  0  0  0  0  0  0  0
   33.3695   23.9823   11.3373 N   0  0  0  0  0  0  0  0  0  0  0  0
   34.5561   24.6144   11.2912 C   0  0  0  0  0  0  0  0  0  0  0  0
   35.6330   23.9934   11.8849 N   0  0  0  0  0  0  0  0  0  0  0  0
   34.7634   25.8063   10.7036 N   0  0  0  0  0  0  0  0  0  0  0  0
   33.6909   26.4054   10.0966 C   0  0  0  0  0  0  0  0  0  0  0  0
   32.4333   25.8150   10.0948 C   0  0  0  0  0  0  0  0  0  0  0  0
   33.9769   27.7396    9.4589 C   0  0  0  0  0  0  0  0  0  0  0  0
   25.6174   23.3983   12.3030 H   0  0  0  0  0  0  0  0  0  0  0  0
   32.5848   24.2771   15.0161 H   0  0  0  0  0  0  0  0  0  0  0  0
   31.7713   24.9400   13.5885 H   0  0  0  0  0  0  0  0  0  0  0  0
   31.3580   23.2983   14.1893 H   0  0  0  0  0  0  0  0  0  0  0  0
   28.6356   26.0144   16.6057 H   0  0  0  0  0  0  0  0  0  0  0  0
   26.3437   26.2744   15.6713 H   0  0  0  0  0  0  0  0  0  0  0  0
   25.8278   25.3840   13.4214 H   0  0  0  0  0  0  0  0  0  0  0  0
   26.6738   22.6904    8.2163 H   0  0  0  0  0  0  0  0  0  0  0  0
   28.8397   23.8266    8.5627 H   0  0  0  0  0  0  0  0  0  0  0  0
   29.8363   25.4959   11.7044 H   0  0  0  0  0  0  0  0  0  0  0  0
   29.2702   26.0610    9.0556 H   0  0  0  0  0  0  0  0  0  0  0  0
   30.8606   23.2565    9.8720 H   0  0  0  0  0  0  0  0  0  0  0  0
   30.8863   23.2402   11.6479 H   0  0  0  0  0  0  0  0  0  0  0  0
   36.5305   24.4451   11.8750 H   0  0  0  0  0  0  0  0  0  0  0  0
   35.4971   23.0972   12.3152 H   0  0  0  0  0  0  0  0  0  0  0  0
   35.0376   28.0147    9.5719 H   0  0  0  0  0  0  0  0  0  0  0  0
   33.3778   28.5297    9.9306 H   0  0  0  0  0  0  0  0  0  0  0  0
   33.7577   27.7206    8.3839 H   0  0  0  0  0  0  0  0  0  0  0  0
  1  2  1  0  0  0  0
  2  3  2  0  0  0  0
  2 13  1  0  0  0  0
  3  4  1  0  0  0  0
  3 29  1  0  0  0  0
  4  5  1  0  0  0  0
  4 15  2  0  0  0  0
  5  6  2  0  0  0  0
  5 12  1  0  0  0  0
  6  7  1  0  0  0  0
  7  8  1  0  0  0  0
  7 10  2  0  0  0  0
  8  9  1  0  0  0  0
  9 30  1  0  0  0  0
  9 31  1  0  0  0  0
  9 32  1  0  0  0  0
 10 11  1  0  0  0  0
 10 33  1  0  0  0  0
 11 12  2  0  0  0  0
 11 34  1  0  0  0  0
 12 35  1  0  0  0  0
 13 14  2  0  0  0  0
 13 36  1  0  0  0  0
 14 15  1  0  0  0  0
 14 37  1  0  0  0  0
 15 16  1  0  0  0  0
 16 17  1  0  0  0  0
 16 20  1  0  0  0  0
 16 38  1  1  0  0  0
 17 18  1  0  0  0  0
 17 39  1  0  0  0  0
 18 19  2  0  0  0  0
 18 27  1  0  0  0  0
 20 21  1  0  0  0  0
 20 40  1  0  0  0  0
 20 41  1  0  0  0  0
 21 22  2  0  0  0  0
 21 27  1  0  0  0  0
 22 23  1  0  0  0  0
 23 24  1  0  0  0  0
 23 25  2  0  0  0  0
 24 42  1  0  0  0  0
 24 43  1  0  0  0  0
 25 26  1  0  0  0  0
 26 27  2  0  0  0  0
 26 28  1  0  0  0  0
 28 44  1  0  0  0  0
 28 45  1  0  0  0  0
 28 46  1  0  0  0  0
M  END
$$$$
