4EGK_RDC_A_301
 OpenBabel03301717293D

 42 44  0  0  1  0  0  0  0  0999 V2000
   10.9073   -4.7255   12.3209 C   0  0  0  0  0  0  0  0  0  0  0  0
    9.6022   -5.2933   12.7383 C   0  0  0  0  0  0  0  0  0  0  0  0
    8.5277   -4.3945   12.8314 C   0  0  0  0  0  0  0  0  0  0  0  0
    7.2644   -4.8425   13.2140 C   0  0  0  0  0  0  0  0  0  0  0  0
    7.0626   -6.1923   13.4696 C   0  0  0  0  0  0  0  0  0  0  0  0
    8.1235   -7.1069   13.3665 C   0  0  0  0  0  0  0  0  0  0  0  0
    9.4266   -6.6748   13.0334 C   0  0  0  0  0  0  0  0  0  0  0  0
   10.5625   -7.6706   12.9253 C   0  0  0  0  0  0  0  0  0  0  0  0
   10.7981   -8.5926   14.1149 C   0  0  0  0  0  0  0  0  0  0  0  0
   11.0485   -8.1133   15.4921 C   0  0  0  0  0  0  0  0  0  0  0  0
   11.0290   -6.8369   15.8753 C   0  0  0  0  0  0  0  0  0  0  0  0
   11.4104   -6.4171   17.1983 C   0  0  0  0  0  0  0  0  0  0  0  0
   11.8414   -5.1686   17.4278 C   0  0  0  0  0  0  0  0  0  0  0  0
   12.0096   -4.1074   16.4227 C   0  0  2  0  0  0  0  0  0  0  0  0
   13.2983   -4.0916   15.6130 C   0  0  1  0  0  0  0  0  0  0  0  0
   13.4599   -3.4864   14.2514 C   0  0  0  0  0  0  0  0  0  0  0  0
   13.1434   -4.4588   13.1152 C   0  0  1  0  0  0  0  0  0  0  0  0
   14.0745   -5.6647   13.1028 C   0  0  0  0  0  0  0  0  0  0  0  0
   11.8072   -4.9600   13.2951 O   0  0  0  0  0  0  0  0  0  0  0  0
   11.0526   -4.0331   11.3300 O   0  0  0  0  0  0  0  0  0  0  0  0
    8.6440   -3.0525   12.5856 O   0  0  0  0  0  0  0  0  0  0  0  0
    5.8079   -6.6015   13.8144 O   0  0  0  0  0  0  0  0  0  0  0  0
    5.8332   -7.5618   13.9467 H   0  0  0  0  0  0  0  0  0  0  0  0
    7.7471   -8.7772   13.6373 Cl  0  0  0  0  0  0  0  0  0  0  0  0
   10.8970   -9.8182   13.9367 O   0  0  0  0  0  0  0  0  0  0  0  0
   13.0094   -3.1012   16.6050 O   0  0  0  0  0  0  0  0  0  0  0  0
    6.4319   -4.1439   13.2912 H   0  0  0  0  0  0  0  0  0  0  0  0
   11.5246   -7.2119   12.6955 H   0  0  0  0  0  0  0  0  0  0  0  0
   10.3434   -8.3122   12.0599 H   0  0  0  0  0  0  0  0  0  0  0  0
   11.3107   -8.8944   16.2013 H   0  0  0  0  0  0  0  0  0  0  0  0
   10.7852   -6.0527   15.1796 H   0  0  0  0  0  0  0  0  0  0  0  0
   11.3905   -7.1439   18.0072 H   0  0  0  0  0  0  0  0  0  0  0  0
   12.1571   -4.9109   18.4370 H   0  0  0  0  0  0  0  0  0  0  0  0
   11.0923   -3.8387   15.9054 H   0  0  0  0  0  0  0  0  0  0  0  0
   14.0319   -4.8591   15.8214 H   0  0  0  0  0  0  0  0  0  0  0  0
   12.8248   -2.5959   14.1585 H   0  0  0  0  0  0  0  0  0  0  0  0
   14.5003   -3.1474   14.1557 H   0  0  0  0  0  0  0  0  0  0  0  0
   13.2550   -3.9254   12.1626 H   0  0  0  0  0  0  0  0  0  0  0  0
   13.9677   -6.2618   14.0145 H   0  0  0  0  0  0  0  0  0  0  0  0
   15.1194   -5.3597   12.9992 H   0  0  0  0  0  0  0  0  0  0  0  0
   13.8162   -6.3305   12.2733 H   0  0  0  0  0  0  0  0  0  0  0  0
    9.5151   -2.8469   12.1940 H   0  0  0  0  0  0  0  0  0  0  0  0
  1  2  1  0  0  0  0
  1 19  1  0  0  0  0
  1 20  2  0  0  0  0
  2  3  2  0  0  0  0
  2  7  1  0  0  0  0
  3  4  1  0  0  0  0
  3 21  1  0  0  0  0
  4  5  2  0  0  0  0
  4 27  1  0  0  0  0
  5  6  1  0  0  0  0
  5 22  1  0  0  0  0
  6  7  2  0  0  0  0
  6 24  1  0  0  0  0
  7  8  1  0  0  0  0
  8  9  1  0  0  0  0
  8 28  1  0  0  0  0
  8 29  1  0  0  0  0
  9 10  1  0  0  0  0
  9 25  2  0  0  0  0
 10 11  2  0  0  0  0
 10 30  1  0  0  0  0
 11 12  1  0  0  0  0
 11 31  1  0  0  0  0
 12 13  2  0  0  0  0
 12 32  1  0  0  0  0
 13 14  1  0  0  0  0
 13 33  1  0  0  0  0
 14 15  1  0  0  0  0
 14 26  1  0  0  0  0
 14 34  1  6  0  0  0
 15 16  1  0  0  0  0
 15 26  1  0  0  0  0
 15 35  1  1  0  0  0
 16 17  1  0  0  0  0
 16 36  1  0  0  0  0
 16 37  1  0  0  0  0
 17 18  1  0  0  0  0
 17 19  1  0  0  0  0
 17 38  1  6  0  0  0
 18 39  1  0  0  0  0
 18 40  1  0  0  0  0
 18 41  1  0  0  0  0
 21 42  1  0  0  0  0
 22 23  1  0  0  0  0
M  END
$$$$
