4BQG_50Q_A_1225
 OpenBabel03301717253D

 25 26  0  0  0  0  0  0  0  0999 V2000
    5.5538   12.1360   24.0181 C   0  0  0  0  0  0  0  0  0  0  0  0
    4.5693   14.0852   25.0803 C   0  0  0  0  0  0  0  0  0  0  0  0
    3.3339   13.4281   25.1793 C   0  0  0  0  0  0  0  0  0  0  0  0
   -2.6615   11.2908   25.1131 O   0  0  0  0  0  0  0  0  0  0  0  0
   -1.5184   11.6505   24.4553 C   0  0  0  0  0  0  0  0  0  0  0  0
   -1.6277   12.2847   23.2157 C   0  0  0  0  0  0  0  0  0  0  0  0
   -0.4647   12.6492   22.5371 C   0  0  0  0  0  0  0  0  0  0  0  0
   -0.5860   13.2616   21.3204 O   0  0  0  0  0  0  0  0  0  0  0  0
    0.7983   12.3796   23.0656 C   0  0  0  0  0  0  0  0  0  0  0  0
    4.3272   11.4804   24.1213 C   0  0  0  0  0  0  0  0  0  0  0  0
    5.6709   13.4412   24.5048 C   0  0  0  0  0  0  0  0  0  0  0  0
    3.2163   12.1206   24.6870 C   0  0  0  0  0  0  0  0  0  0  0  0
    7.2161   14.2226   24.3713 Cl  0  0  0  0  0  0  0  0  0  0  0  0
    2.0859   11.3631   24.8824 O   0  0  0  0  0  0  0  0  0  0  0  0
    4.6982   15.6967   25.7035 Cl  0  0  0  0  0  0  0  0  0  0  0  0
    0.8947   11.7528   24.3084 C   0  0  0  0  0  0  0  0  0  0  0  0
   -0.2644   11.3766   25.0066 C   0  0  0  0  0  0  0  0  0  0  0  0
    6.4126   11.6345   23.5870 H   0  0  0  0  0  0  0  0  0  0  0  0
    2.4901   13.9092   25.6590 H   0  0  0  0  0  0  0  0  0  0  0  0
   -2.4369   10.8341   25.9401 H   0  0  0  0  0  0  0  0  0  0  0  0
   -2.6060   12.4898   22.7901 H   0  0  0  0  0  0  0  0  0  0  0  0
    0.3094   13.4435   20.9631 H   0  0  0  0  0  0  0  0  0  0  0  0
    1.6929   12.6341   22.5070 H   0  0  0  0  0  0  0  0  0  0  0  0
    4.2371   10.4433   23.7826 H   0  0  0  0  0  0  0  0  0  0  0  0
   -0.1770   10.8746   25.9588 H   0  0  0  0  0  0  0  0  0  0  0  0
  1 10  2  0  0  0  0
  1 11  1  0  0  0  0
  1 18  1  0  0  0  0
  2  3  1  0  0  0  0
  2 11  2  0  0  0  0
  2 15  1  0  0  0  0
  3 12  2  0  0  0  0
  3 19  1  0  0  0  0
  4  5  1  0  0  0  0
  4 20  1  0  0  0  0
  5  6  2  0  0  0  0
  5 17  1  0  0  0  0
  6  7  1  0  0  0  0
  6 21  1  0  0  0  0
  7  8  1  0  0  0  0
  7  9  2  0  0  0  0
  8 22  1  0  0  0  0
  9 16  1  0  0  0  0
  9 23  1  0  0  0  0
 10 12  1  0  0  0  0
 10 24  1  0  0  0  0
 11 13  1  0  0  0  0
 12 14  1  0  0  0  0
 14 16  1  0  0  0  0
 16 17  2  0  0  0  0
 17 25  1  0  0  0  0
M  END
$$$$
