2YE8_2D3_A_1225
 OpenBabel03301717093D

 24 25  0  0  0  0  0  0  0  0999 V2000
    1.7726   14.3791   24.7831 C   0  0  0  0  0  0  0  0  0  0  0  0
    3.1558   14.6422   24.5893 O   0  0  0  0  0  0  0  0  0  0  0  0
    3.9125   13.5156   24.4976 C   0  0  0  0  0  0  0  0  0  0  0  0
    3.4262   12.4127   24.2985 O   0  0  0  0  0  0  0  0  0  0  0  0
    5.3179   13.7330   24.7931 C   0  0  0  0  0  0  0  0  0  0  0  0
    5.8441   14.7933   25.5320 C   0  0  0  0  0  0  0  0  0  0  0  0
    5.2575   15.9844   26.2032 C   0  0  0  0  0  0  0  0  0  0  0  0
    7.1869   14.5598   25.6256 N   0  3  0  0  0  0  0  0  0  0  0  0
    7.5876   13.4711   24.9781 N   0  0  0  0  0  0  0  0  0  0  0  0
    6.4659   12.9279   24.4812 C   0  0  0  0  0  0  0  0  0  0  0  0
    6.5835   11.6433   23.7082 C   0  0  0  0  0  0  0  0  0  0  0  0
    5.6146   10.8057   23.1941 C   0  0  0  0  0  0  0  0  0  0  0  0
    6.3055    9.7760   22.5471 C   0  0  0  0  0  0  0  0  0  0  0  0
    7.6193    9.9377   22.6404 N   0  0  0  0  0  0  0  0  0  0  0  0
    7.8032   11.0960   23.3754 O   0  0  0  0  0  0  0  0  0  0  0  0
    1.2373   15.3291   24.8145 H   0  0  0  0  0  0  0  0  0  0  0  0
    1.6355   13.8750   25.7500 H   0  0  0  0  0  0  0  0  0  0  0  0
    1.3594   13.7666   23.9726 H   0  0  0  0  0  0  0  0  0  0  0  0
    4.1735   16.0707   26.0792 H   0  0  0  0  0  0  0  0  0  0  0  0
    5.6988   16.9070   25.8113 H   0  0  0  0  0  0  0  0  0  0  0  0
    5.4431   15.9434   27.2854 H   0  0  0  0  0  0  0  0  0  0  0  0
    7.8806   15.1086   26.1178 H   0  0  0  0  0  0  0  0  0  0  0  0
    4.5447   10.8762   23.2709 H   0  0  0  0  0  0  0  0  0  0  0  0
    5.9197    8.9209   22.0208 H   0  0  0  0  0  0  0  0  0  0  0  0
  1  2  1  0  0  0  0
  1 16  1  0  0  0  0
  1 17  1  0  0  0  0
  1 18  1  0  0  0  0
  2  3  1  0  0  0  0
  3  4  2  0  0  0  0
  3  5  1  0  0  0  0
  5  6  1  0  0  0  0
  5 10  2  0  0  0  0
  6  7  1  0  0  0  0
  6  8  2  0  0  0  0
  7 19  1  0  0  0  0
  7 20  1  0  0  0  0
  7 21  1  0  0  0  0
  8  9  1  0  0  0  0
  8 22  1  0  0  0  0
  9 10  1  0  0  0  0
 10 11  1  0  0  0  0
 11 12  2  0  0  0  0
 11 15  1  0  0  0  0
 12 13  1  0  0  0  0
 12 23  1  0  0  0  0
 13 14  2  0  0  0  0
 13 24  1  0  0  0  0
 14 15  1  0  0  0  0
M  CHG  1   8   1
M  END
$$$$
