2WI7_2KL_A_1224
 OpenBabel03301717053D

 55 58  0  0  0  0  0  0  0  0999 V2000
    2.0727    7.2410   28.9749 O   0  0  0  0  0  0  0  0  0  0  0  0
    1.0540    7.8728   29.2031 C   0  0  0  0  0  0  0  0  0  0  0  0
    0.4791    7.8646   30.4575 N   0  0  0  0  0  0  0  0  0  0  0  0
    1.1744    7.3042   31.6104 C   0  0  0  0  0  0  0  0  0  0  0  0
    0.7381    5.8888   31.9053 C   0  0  0  0  0  0  0  0  0  0  0  0
    0.4664    8.7054   28.1559 C   0  0  0  0  0  0  0  0  0  0  0  0
   -1.1778    9.1557   28.0724 S   0  0  0  0  0  0  0  0  0  0  0  0
    1.1733    9.1692   27.0620 C   0  0  0  0  0  0  0  0  0  0  0  0
    0.3523    9.8941   26.1309 C   0  0  0  0  0  0  0  0  0  0  0  0
   -0.9668    9.9722   26.5581 C   0  0  0  0  0  0  0  0  0  0  0  0
   -1.9757   10.5970   25.8851 N   0  0  0  0  0  0  0  0  0  0  0  0
   -1.5952   11.1612   24.7511 C   0  0  0  0  0  0  0  0  0  0  0  0
   -2.5732   11.8104   23.9858 N   0  0  0  0  0  0  0  0  0  0  0  0
   -0.3534   11.1485   24.2360 N   0  0  0  0  0  0  0  0  0  0  0  0
    0.6435   10.5207   24.9279 C   0  0  0  0  0  0  0  0  0  0  0  0
    2.0221   10.5203   24.3967 C   0  0  0  0  0  0  0  0  0  0  0  0
    2.6565    9.2792   24.0746 C   0  0  0  0  0  0  0  0  0  0  0  0
    2.7773   11.7226   24.2555 C   0  0  0  0  0  0  0  0  0  0  0  0
    2.1412   13.2830   24.6455 Cl  0  0  0  0  0  0  0  0  0  0  0  0
    4.0988   11.7106   23.8225 C   0  0  0  0  0  0  0  0  0  0  0  0
    4.6990   10.4869   23.4997 C   0  0  0  0  0  0  0  0  0  0  0  0
    6.3179   10.5602   22.9304 Cl  0  0  0  0  0  0  0  0  0  0  0  0
    3.9804    9.2563   23.6081 C   0  0  0  0  0  0  0  0  0  0  0  0
    4.6508    8.1022   23.2701 O   0  0  0  0  0  0  0  0  0  0  0  0
    3.9071    6.9323   22.8873 C   0  0  0  0  0  0  0  0  0  0  0  0
    4.8866    5.7774   22.7108 C   0  0  0  0  0  0  0  0  0  0  0  0
    5.2112    5.1046   24.0153 N   0  3  0  0  0  0  0  0  0  0  0  0
    5.0147    3.6398   24.2146 C   0  0  0  0  0  0  0  0  0  0  0  0
    5.3661    5.8663   25.2925 C   0  0  0  0  0  0  0  0  0  0  0  0
    5.0996    4.8401   26.3626 C   0  0  0  0  0  0  0  0  0  0  0  0
    4.9902    3.4663   25.7132 C   0  0  0  0  0  0  0  0  0  0  0  0
   -0.4481    8.2364   30.5804 H   0  0  0  0  0  0  0  0  0  0  0  0
    0.9749    7.9396   32.4761 H   0  0  0  0  0  0  0  0  0  0  0  0
    2.2584    7.3124   31.4220 H   0  0  0  0  0  0  0  0  0  0  0  0
   -0.3361    5.8634   32.1101 H   0  0  0  0  0  0  0  0  0  0  0  0
    1.2713    5.5025   32.7813 H   0  0  0  0  0  0  0  0  0  0  0  0
    0.9486    5.2387   31.0514 H   0  0  0  0  0  0  0  0  0  0  0  0
    2.2538    9.0060   26.9042 H   0  0  0  0  0  0  0  0  0  0  0  0
   -2.3056   12.2382   23.1228 H   0  0  0  0  0  0  0  0  0  0  0  0
   -3.5067   11.8365   24.3428 H   0  0  0  0  0  0  0  0  0  0  0  0
    2.0952    8.3450   24.2100 H   0  0  0  0  0  0  0  0  0  0  0  0
    4.6796   12.6355   23.7195 H   0  0  0  0  0  0  0  0  0  0  0  0
    3.4115    7.0928   21.9259 H   0  0  0  0  0  0  0  0  0  0  0  0
    3.1791    6.6442   23.6479 H   0  0  0  0  0  0  0  0  0  0  0  0
    5.8592    6.1290   22.3419 H   0  0  0  0  0  0  0  0  0  0  0  0
    4.5119    5.0090   22.0249 H   0  0  0  0  0  0  0  0  0  0  0  0
    6.2096    5.0415   23.8325 H   0  0  0  0  0  0  0  0  0  0  0  0
    5.8974    3.1679   23.7620 H   0  0  0  0  0  0  0  0  0  0  0  0
    4.1171    3.2697   23.7115 H   0  0  0  0  0  0  0  0  0  0  0  0
    4.7043    6.7341   25.3561 H   0  0  0  0  0  0  0  0  0  0  0  0
    6.4066    6.2179   25.2992 H   0  0  0  0  0  0  0  0  0  0  0  0
    4.1677    5.0869   26.8782 H   0  0  0  0  0  0  0  0  0  0  0  0
    5.9087    4.8504   27.0996 H   0  0  0  0  0  0  0  0  0  0  0  0
    5.8171    2.8237   26.0374 H   0  0  0  0  0  0  0  0  0  0  0  0
    4.0567    2.9787   26.0122 H   0  0  0  0  0  0  0  0  0  0  0  0
  1  2  2  0  0  0  0
  2  3  1  0  0  0  0
  2  6  1  0  0  0  0
  3  4  1  0  0  0  0
  3 32  1  0  0  0  0
  4  5  1  0  0  0  0
  4 33  1  0  0  0  0
  4 34  1  0  0  0  0
  5 35  1  0  0  0  0
  5 36  1  0  0  0  0
  5 37  1  0  0  0  0
  6  7  1  0  0  0  0
  6  8  2  0  0  0  0
  7 10  1  0  0  0  0
  8  9  1  0  0  0  0
  8 38  1  0  0  0  0
  9 10  2  0  0  0  0
  9 15  1  0  0  0  0
 10 11  1  0  0  0  0
 11 12  2  0  0  0  0
 12 13  1  0  0  0  0
 12 14  1  0  0  0  0
 13 39  1  0  0  0  0
 13 40  1  0  0  0  0
 14 15  2  0  0  0  0
 15 16  1  0  0  0  0
 16 17  2  0  0  0  0
 16 18  1  0  0  0  0
 17 23  1  0  0  0  0
 17 41  1  0  0  0  0
 18 19  1  0  0  0  0
 18 20  2  0  0  0  0
 20 21  1  0  0  0  0
 20 42  1  0  0  0  0
 21 22  1  0  0  0  0
 21 23  2  0  0  0  0
 23 24  1  0  0  0  0
 24 25  1  0  0  0  0
 25 26  1  0  0  0  0
 25 43  1  0  0  0  0
 25 44  1  0  0  0  0
 26 27  1  0  0  0  0
 26 45  1  0  0  0  0
 26 46  1  0  0  0  0
 27 28  1  0  0  0  0
 27 29  1  0  0  0  0
 27 47  1  0  0  0  0
 28 31  1  0  0  0  0
 28 48  1  0  0  0  0
 28 49  1  0  0  0  0
 29 30  1  0  0  0  0
 29 50  1  0  0  0  0
 29 51  1  0  0  0  0
 30 31  1  0  0  0  0
 30 52  1  0  0  0  0
 30 53  1  0  0  0  0
 31 54  1  0  0  0  0
 31 55  1  0  0  0  0
M  CHG  1  27   1
M  END
$$$$
