3RLQ_3RQ_A_901
 OpenBabel03301717223D

 32 34  0  0  0  0  0  0  0  0999 V2000
   17.5616   -2.2406   49.8605 N   0  0  0  0  0  0  0  0  0  0  0  0
   17.5160    0.0646   49.1464 N   0  3  0  0  0  0  0  0  0  0  0  0
   12.5915   -1.2200   51.1338 C   0  0  0  0  0  0  0  0  0  0  0  0
   11.3787   -1.1290   51.8350 C   0  0  0  0  0  0  0  0  0  0  0  0
   11.3525   -1.3115   53.2247 C   0  0  0  0  0  0  0  0  0  0  0  0
   13.5284   -2.0124   56.1278 C   0  0  0  0  0  0  0  0  0  0  0  0
   15.1034   -1.6494   51.1168 C   0  0  0  0  0  0  0  0  0  0  0  0
   17.4033   -4.5272   50.7003 C   0  0  0  0  0  0  0  0  0  0  0  0
   15.6109    0.7502   50.0707 C   0  0  0  0  0  0  0  0  0  0  0  0
   14.5538    1.6361   50.4349 C   0  0  0  0  0  0  0  0  0  0  0  0
   13.7466   -1.6828   53.2346 C   0  0  0  0  0  0  0  0  0  0  0  0
   16.6866    1.1492   49.2988 C   0  0  0  0  0  0  0  0  0  0  0  0
   15.7835   -0.6365   50.4016 C   0  0  0  0  0  0  0  0  0  0  0  0
   13.8079   -1.4940   51.8143 C   0  0  0  0  0  0  0  0  0  0  0  0
   12.5321   -1.5872   53.9540 C   0  0  0  0  0  0  0  0  0  0  0  0
   16.9880   -1.0210   49.8098 C   0  0  0  0  0  0  0  0  0  0  0  0
   16.8481   -3.1341   50.5710 C   0  0  0  0  0  0  0  0  0  0  0  0
   13.6823    2.3515   50.7558 N   0  0  0  0  0  0  0  0  0  0  0  0
   15.6732   -2.8897   51.1933 N   0  0  0  0  0  0  0  0  0  0  0  0
   12.3884   -1.7374   55.3154 O   0  0  0  0  0  0  0  0  0  0  0  0
   12.5068   -0.9790   49.4137 Cl  0  0  0  0  0  0  0  0  0  0  0  0
    9.8043   -1.1852   54.0027 Cl  0  0  0  0  0  0  0  0  0  0  0  0
   18.3885    0.0450   48.6294 H   0  0  0  0  0  0  0  0  0  0  0  0
   10.4528   -0.9127   51.2973 H   0  0  0  0  0  0  0  0  0  0  0  0
   13.2186   -2.0983   57.1835 H   0  0  0  0  0  0  0  0  0  0  0  0
   14.2572   -1.2001   56.0577 H   0  0  0  0  0  0  0  0  0  0  0  0
   13.9903   -2.9594   55.8361 H   0  0  0  0  0  0  0  0  0  0  0  0
   18.3562   -4.6119   50.1653 H   0  0  0  0  0  0  0  0  0  0  0  0
   16.7018   -5.2576   50.2799 H   0  0  0  0  0  0  0  0  0  0  0  0
   17.5742   -4.7730   51.7554 H   0  0  0  0  0  0  0  0  0  0  0  0
   14.6784   -1.9012   53.7612 H   0  0  0  0  0  0  0  0  0  0  0  0
   16.8915    2.1225   48.8667 H   0  0  0  0  0  0  0  0  0  0  0  0
  1 16  1  0  0  0  0
  1 17  1  0  0  0  0
  2 12  1  0  0  0  0
  2 16  2  0  0  0  0
  2 23  1  0  0  0  0
  3  4  2  0  0  0  0
  3 14  1  0  0  0  0
  3 21  1  0  0  0  0
  4  5  1  0  0  0  0
  4 24  1  0  0  0  0
  5 15  2  0  0  0  0
  5 22  1  0  0  0  0
  6 20  1  0  0  0  0
  6 25  1  0  0  0  0
  6 26  1  0  0  0  0
  6 27  1  0  0  0  0
  7 13  2  0  0  0  0
  7 14  1  0  0  0  0
  7 19  1  0  0  0  0
  8 17  1  0  0  0  0
  8 28  1  0  0  0  0
  8 29  1  0  0  0  0
  8 30  1  0  0  0  0
  9 10  1  0  0  0  0
  9 12  2  0  0  0  0
  9 13  1  0  0  0  0
 10 18  3  0  0  0  0
 11 14  2  0  0  0  0
 11 15  1  0  0  0  0
 11 31  1  0  0  0  0
 12 32  1  0  0  0  0
 13 16  1  0  0  0  0
 15 20  1  0  0  0  0
 17 19  2  0  0  0  0
M  CHG  1   2   1
M  END
$$$$
