4XIT_40Z_A_301
 OpenBabel03301717363D

 58 62  0  0  1  0  0  0  0  0999 V2000
    2.7641   -8.8297  -25.6217 N   0  0  0  0  0  0  0  0  0  0  0  0
    6.4133  -11.6099  -24.3149 C   0  0  2  0  0  0  0  0  0  0  0  0
    7.5526  -12.5152  -24.4847 C   0  0  0  0  0  0  0  0  0  0  0  0
    7.2562  -13.9688  -24.8500 C   0  0  0  0  0  0  0  0  0  0  0  0
    6.0083  -14.1765  -25.7080 C   0  0  0  0  0  0  0  0  0  0  0  0
    4.8061  -13.4336  -25.0897 C   0  0  0  0  0  0  0  0  0  0  0  0
    5.6847  -15.6792  -25.7689 C   0  0  0  0  0  0  0  0  0  0  0  0
    0.7388  -12.2591  -24.1761 C   0  0  1  0  0  0  0  0  0  0  0  0
    0.7280  -10.1181  -25.2717 C   0  0  0  0  0  0  0  0  0  0  0  0
    3.5968   -7.9382  -24.8221 C   0  0  0  0  0  0  0  0  0  0  0  0
    3.0823   -7.4646  -27.8508 C   0  0  1  0  0  0  0  0  0  0  0  0
    3.4633   -6.1508  -27.7063 C   0  0  0  0  0  0  0  0  0  0  0  0
    3.9923   -5.7556  -28.9414 C   0  0  0  0  0  0  0  0  0  0  0  0
   -1.4334  -11.2886  -25.1035 C   0  0  0  0  0  0  0  0  0  0  0  0
    0.0151  -13.7282  -23.6348 Cl  0  0  0  0  0  0  0  0  0  0  0  0
    2.1233  -12.1485  -24.0020 C   0  0  0  0  0  0  0  0  0  0  0  0
    0.0250  -11.2481  -24.8202 C   0  0  1  0  0  0  0  0  0  0  0  0
   -2.2348  -11.7900  -24.1050 N   0  0  0  0  0  0  0  0  0  0  0  0
   -1.8932  -10.8669  -26.1282 O   0  0  0  0  0  0  0  0  0  0  0  0
    2.1299   -9.9591  -25.1023 C   0  0  1  0  0  0  0  0  0  0  0  0
    2.3596   -8.4291  -26.9746 C   0  0  0  0  0  0  0  0  0  0  0  0
    3.3339   -7.8717  -29.1457 O   0  0  0  0  0  0  0  0  0  0  0  0
    3.8932   -6.8173  -29.7858 C   0  0  0  0  0  0  0  0  0  0  0  0
    4.3025   -8.6014  -23.6477 C   0  0  0  0  0  0  0  0  0  0  0  0
    4.9611   -9.9032  -23.9896 C   0  0  2  0  0  0  0  0  0  0  0  0
    2.8175  -11.0358  -24.4985 C   0  0  1  0  0  0  0  0  0  0  0  0
    4.2342  -11.0116  -24.3802 N   0  3  2  0  0  0  0  0  0  0  0  0
    5.1334  -12.0570  -24.5886 C   0  0  2  0  0  0  0  0  0  0  0  0
    6.2565  -13.7051  -27.1382 C   0  0  0  0  0  0  0  0  0  0  0  0
    8.7243  -12.1646  -24.3127 O   0  0  0  0  0  0  0  0  0  0  0  0
    6.3070  -10.2381  -23.9330 C   0  0  2  0  0  0  0  0  0  0  0  0
    7.4067   -9.3091  -23.5521 C   0  0  0  0  0  0  0  0  0  0  0  0
    7.1500  -14.5426  -23.9193 H   0  0  0  0  0  0  0  0  0  0  0  0
    8.1300  -14.3566  -25.3947 H   0  0  0  0  0  0  0  0  0  0  0  0
    4.4528  -14.0275  -24.2409 H   0  0  0  0  0  0  0  0  0  0  0  0
    4.0242  -13.3687  -25.8447 H   0  0  0  0  0  0  0  0  0  0  0  0
    5.5006  -16.0713  -24.7606 H   0  0  0  0  0  0  0  0  0  0  0  0
    6.5175  -16.2418  -26.2100 H   0  0  0  0  0  0  0  0  0  0  0  0
    4.7874  -15.8558  -26.3759 H   0  0  0  0  0  0  0  0  0  0  0  0
    0.1561   -9.3257  -25.7548 H   0  0  0  0  0  0  0  0  0  0  0  0
    2.9865   -7.1093  -24.4302 H   0  0  0  0  0  0  0  0  0  0  0  0
    4.3653   -7.4988  -25.4692 H   0  0  0  0  0  0  0  0  0  0  0  0
    3.3788   -5.5507  -26.8234 H   0  0  0  0  0  0  0  0  0  0  0  0
    4.4053   -4.7936  -29.2121 H   0  0  0  0  0  0  0  0  0  0  0  0
    2.6527  -12.9288  -23.4565 H   0  0  0  0  0  0  0  0  0  0  0  0
   -3.2337  -11.8337  -24.2654 H   0  0  0  0  0  0  0  0  0  0  0  0
   -1.8423  -12.1395  -23.2488 H   0  0  0  0  0  0  0  0  0  0  0  0
    1.3481   -8.0266  -26.9031 H   0  0  0  0  0  0  0  0  0  0  0  0
    2.3616   -9.3586  -27.5512 H   0  0  0  0  0  0  0  0  0  0  0  0
    4.1882   -6.8930  -30.8155 H   0  0  0  0  0  0  0  0  0  0  0  0
    3.5819   -8.7423  -22.8333 H   0  0  0  0  0  0  0  0  0  0  0  0
    5.0774   -7.9138  -23.2831 H   0  0  0  0  0  0  0  0  0  0  0  0
    6.4947  -12.6392  -27.1461 H   0  0  0  0  0  0  0  0  0  0  0  0
    5.3649  -13.8676  -27.7573 H   0  0  0  0  0  0  0  0  0  0  0  0
    7.0920  -14.2532  -27.5920 H   0  0  0  0  0  0  0  0  0  0  0  0
    8.3591   -9.8333  -23.6048 H   0  0  0  0  0  0  0  0  0  0  0  0
    7.2780   -8.9325  -22.5270 H   0  0  0  0  0  0  0  0  0  0  0  0
    7.4514   -8.4453  -24.2310 H   0  0  0  0  0  0  0  0  0  0  0  0
  1 10  1  0  0  0  0
  1 21  1  0  0  0  0
  2  3  1  6  0  0  0
  2 28  1  0  0  0  0
  2 31  1  0  0  0  0
  3  4  1  0  0  0  0
  3 30  2  0  0  0  0
  4  5  1  0  0  0  0
  4 33  1  0  0  0  0
  4 34  1  0  0  0  0
  5  6  1  0  0  0  0
  5  7  1  0  0  0  0
  5 29  1  0  0  0  0
  6 35  1  0  0  0  0
  6 36  1  0  0  0  0
  7 37  1  0  0  0  0
  7 38  1  0  0  0  0
  7 39  1  0  0  0  0
  8 15  1  6  0  0  0
  8 16  1  0  0  0  0
  8 17  1  0  0  0  0
  9 17  1  0  0  0  0
  9 20  1  0  0  0  0
  9 40  1  0  0  0  0
 10 24  1  0  0  0  0
 10 41  1  0  0  0  0
 10 42  1  0  0  0  0
 11 12  1  0  0  0  0
 11 21  1  6  0  0  0
 11 22  1  0  0  0  0
 12 13  1  0  0  0  0
 12 43  1  0  0  0  0
 13 23  1  0  0  0  0
 13 44  1  0  0  0  0
 14 18  1  0  0  0  0
 14 19  2  0  0  0  0
 16 45  1  0  0  0  0
 17 14  1  6  0  0  0
 18 46  1  0  0  0  0
 18 47  1  0  0  0  0
 20  1  1  6  0  0  0
 20 26  1  0  0  0  0
 21 48  1  0  0  0  0
 21 49  1  0  0  0  0
 22 23  1  0  0  0  0
 23 50  1  0  0  0  0
 24 51  1  0  0  0  0
 24 52  1  0  0  0  0
 25 24  1  1  0  0  0
 25 31  1  0  0  0  0
 26 16  1  1  0  0  0
 26 27  1  0  0  0  0
 27 25  1  1  0  0  0
 27 28  1  0  0  0  0
 28  6  1  6  0  0  0
 29 53  1  0  0  0  0
 29 54  1  0  0  0  0
 29 55  1  0  0  0  0
 31 32  1  6  0  0  0
 32 56  1  0  0  0  0
 32 57  1  0  0  0  0
 32 58  1  0  0  0  0
M  CHG  1  27   1
M  END
$$$$
