1YC3_4BC_A_237
 OpenBabel03301716593D

 42 45  0  0  0  0  0  0  0  0999 V2000
   11.2459    4.1588   15.6337 C   0  0  0  0  0  0  0  0  0  0  0  0
   11.2539    3.2773   16.6933 C   0  0  0  0  0  0  0  0  0  0  0  0
   10.4248    3.3207   17.7730 O   0  0  0  0  0  0  0  0  0  0  0  0
   10.9201    2.2026   18.5348 C   0  0  0  0  0  0  0  0  0  0  0  0
   11.9643    1.4641   17.8704 O   0  0  0  0  0  0  0  0  0  0  0  0
   12.1268    2.2134   16.7454 C   0  0  0  0  0  0  0  0  0  0  0  0
   13.0371    1.9682   15.7410 C   0  0  0  0  0  0  0  0  0  0  0  0
   13.0336    2.8293   14.6434 C   0  0  0  0  0  0  0  0  0  0  0  0
   12.1485    3.9268   14.5843 C   0  0  0  0  0  0  0  0  0  0  0  0
   12.1110    4.7365   13.3760 C   0  0  0  0  0  0  0  0  0  0  0  0
   13.1355    5.4348   12.6654 C   0  0  0  0  0  0  0  0  0  0  0  0
   14.5616    5.5740   13.1674 C   0  0  0  0  0  0  0  0  0  0  0  0
   15.4201    6.1001   12.3764 O   0  0  0  0  0  0  0  0  0  0  0  0
   14.8309    5.1602   14.3443 O   0  0  0  0  0  0  0  0  0  0  0  0
   12.6497    5.9366   11.5022 N   0  0  0  0  0  0  0  0  0  0  0  0
   10.9724    4.8580   12.5894 C   0  0  0  0  0  0  0  0  0  0  0  0
   11.3517    5.6191   11.5253 N   0  3  0  0  0  0  0  0  0  0  0  0
    9.6427    4.2799   12.7296 C   0  0  0  0  0  0  0  0  0  0  0  0
    9.5547    2.9182   13.0520 C   0  0  0  0  0  0  0  0  0  0  0  0
    8.3334    2.3136   13.3357 C   0  0  0  0  0  0  0  0  0  0  0  0
    8.3127    0.8432   13.6599 C   0  0  0  0  0  0  0  0  0  0  0  0
    7.7610    0.0495   12.4871 C   0  0  0  0  0  0  0  0  0  0  0  0
    7.1817    3.0988   13.2699 C   0  0  0  0  0  0  0  0  0  0  0  0
    5.9850    2.5096   13.5660 O   0  0  0  0  0  0  0  0  0  0  0  0
    7.2336    4.4487   12.9068 C   0  0  0  0  0  0  0  0  0  0  0  0
    8.4692    5.0325   12.6291 C   0  0  0  0  0  0  0  0  0  0  0  0
    8.5420    6.3529   12.2753 O   0  0  0  0  0  0  0  0  0  0  0  0
   10.5465    4.9857   15.5966 H   0  0  0  0  0  0  0  0  0  0  0  0
   10.0872    1.5204   18.7427 H   0  0  0  0  0  0  0  0  0  0  0  0
   11.3058    2.5738   19.4916 H   0  0  0  0  0  0  0  0  0  0  0  0
   13.7417    1.1484   15.7903 H   0  0  0  0  0  0  0  0  0  0  0  0
   13.7387    2.6687   13.8291 H   0  0  0  0  0  0  0  0  0  0  0  0
   10.7690    5.9171   10.7517 H   0  0  0  0  0  0  0  0  0  0  0  0
   10.4673    2.3265   13.1173 H   0  0  0  0  0  0  0  0  0  0  0  0
    7.7257    0.6659   14.5676 H   0  0  0  0  0  0  0  0  0  0  0  0
    9.3279    0.4873   13.8838 H   0  0  0  0  0  0  0  0  0  0  0  0
    6.7349    0.3494   12.2534 H   0  0  0  0  0  0  0  0  0  0  0  0
    7.7583   -1.0195   12.7150 H   0  0  0  0  0  0  0  0  0  0  0  0
    8.3664    0.2098   11.5881 H   0  0  0  0  0  0  0  0  0  0  0  0
    5.2840    3.1720   13.4862 H   0  0  0  0  0  0  0  0  0  0  0  0
    6.3264    5.0376   12.8518 H   0  0  0  0  0  0  0  0  0  0  0  0
    7.6659    6.7590   12.3568 H   0  0  0  0  0  0  0  0  0  0  0  0
  1  2  2  0  0  0  0
  1  9  1  0  0  0  0
  1 28  1  0  0  0  0
  2  3  1  0  0  0  0
  2  6  1  0  0  0  0
  3  4  1  0  0  0  0
  4  5  1  0  0  0  0
  4 29  1  0  0  0  0
  4 30  1  0  0  0  0
  5  6  1  0  0  0  0
  6  7  2  0  0  0  0
  7  8  1  0  0  0  0
  7 31  1  0  0  0  0
  8  9  2  0  0  0  0
  8 32  1  0  0  0  0
  9 10  1  0  0  0  0
 10 11  2  0  0  0  0
 10 16  1  0  0  0  0
 11 12  1  0  0  0  0
 11 15  1  0  0  0  0
 12 13  2  0  0  0  0
 12 14  1  0  0  0  0
 15 17  1  0  0  0  0
 16 17  2  0  0  0  0
 16 18  1  0  0  0  0
 17 33  1  0  0  0  0
 18 19  2  0  0  0  0
 18 26  1  0  0  0  0
 19 20  1  0  0  0  0
 19 34  1  0  0  0  0
 20 21  1  0  0  0  0
 20 23  2  0  0  0  0
 21 22  1  0  0  0  0
 21 35  1  0  0  0  0
 21 36  1  0  0  0  0
 22 37  1  0  0  0  0
 22 38  1  0  0  0  0
 22 39  1  0  0  0  0
 23 24  1  0  0  0  0
 23 25  1  0  0  0  0
 24 40  1  0  0  0  0
 25 26  2  0  0  0  0
 25 41  1  0  0  0  0
 26 27  1  0  0  0  0
 27 42  1  0  0  0  0
M  CHG  1  17   1
M  END
$$$$
