4YKT_4EQ_A_301
 OpenBabel03301717363D

 45 48  0  0  0  0  0  0  0  0999 V2000
   -1.7116  -41.5976  -30.2267 O   0  0  0  0  0  0  0  0  0  0  0  0
   -1.1937  -41.9473  -28.9225 S   0  0  0  0  0  0  0  0  0  0  0  0
   -0.2600  -43.0332  -28.7344 O   0  0  0  0  0  0  0  0  0  0  0  0
   -2.5815  -42.1972  -27.8766 C   0  0  0  0  0  0  0  0  0  0  0  0
   -2.6492  -43.3091  -27.0610 C   0  0  0  0  0  0  0  0  0  0  0  0
   -3.7131  -43.5797  -26.2641 N   0  0  0  0  0  0  0  0  0  0  0  0
   -4.7461  -42.7117  -26.3016 C   0  0  0  0  0  0  0  0  0  0  0  0
   -4.7568  -41.5775  -27.0963 C   0  0  0  0  0  0  0  0  0  0  0  0
   -3.6626  -41.3182  -27.9051 C   0  0  0  0  0  0  0  0  0  0  0  0
   -0.5026  -40.5484  -28.2887 N   0  0  0  0  0  0  0  0  0  0  0  0
    0.3626  -40.6614  -27.1042 C   0  0  0  0  0  0  0  0  0  0  0  0
    0.8825  -39.2802  -26.7466 C   0  0  0  0  0  0  0  0  0  0  0  0
    1.4713  -38.4707  -27.7396 C   0  0  0  0  0  0  0  0  0  0  0  0
    0.7042  -38.7666  -25.4382 C   0  0  0  0  0  0  0  0  0  0  0  0
    1.0030  -37.4321  -25.1345 C   0  0  0  0  0  0  0  0  0  0  0  0
    1.4886  -36.6346  -26.1504 C   0  0  0  0  0  0  0  0  0  0  0  0
    1.7399  -37.1565  -27.4186 C   0  0  0  0  0  0  0  0  0  0  0  0
    2.2476  -36.1403  -28.2223 N   0  3  0  0  0  0  0  0  0  0  0  0
    2.3344  -34.9508  -27.4661 C   0  0  0  0  0  0  0  0  0  0  0  0
    2.6839  -33.8702  -27.9132 O   0  0  0  0  0  0  0  0  0  0  0  0
    1.8634  -35.2807  -26.1732 N   0  3  0  0  0  0  0  0  0  0  0  0
    1.7388  -34.4046  -25.0901 C   0  0  0  0  0  0  0  0  0  0  0  0
    0.4643  -34.0968  -24.6017 C   0  0  0  0  0  0  0  0  0  0  0  0
    0.3232  -33.2350  -23.5148 C   0  0  0  0  0  0  0  0  0  0  0  0
   -1.2683  -32.7960  -23.0106 Cl  0  0  0  0  0  0  0  0  0  0  0  0
    2.8668  -33.8178  -24.4930 C   0  0  0  0  0  0  0  0  0  0  0  0
    4.1123  -34.1461  -24.9581 O   0  0  0  0  0  0  0  0  0  0  0  0
    2.7315  -32.9892  -23.3739 C   0  0  0  0  0  0  0  0  0  0  0  0
    1.4559  -32.7345  -22.8644 C   0  0  0  0  0  0  0  0  0  0  0  0
    1.2993  -32.0258  -21.7034 O   0  0  0  0  0  0  0  0  0  0  0  0
   -1.8430  -44.0384  -27.0099 H   0  0  0  0  0  0  0  0  0  0  0  0
   -5.5952  -42.9557  -25.6669 H   0  0  0  0  0  0  0  0  0  0  0  0
   -5.6229  -40.9104  -27.0920 H   0  0  0  0  0  0  0  0  0  0  0  0
   -3.6598  -40.4507  -28.5654 H   0  0  0  0  0  0  0  0  0  0  0  0
   -1.2047  -39.8191  -28.1827 H   0  0  0  0  0  0  0  0  0  0  0  0
    1.2096  -41.3314  -27.2829 H   0  0  0  0  0  0  0  0  0  0  0  0
   -0.2383  -41.0479  -26.2746 H   0  0  0  0  0  0  0  0  0  0  0  0
    1.6663  -38.8642  -28.7333 H   0  0  0  0  0  0  0  0  0  0  0  0
    0.3122  -39.4059  -24.6496 H   0  0  0  0  0  0  0  0  0  0  0  0
    0.8423  -37.0485  -24.1342 H   0  0  0  0  0  0  0  0  0  0  0  0
    2.4817  -36.1812  -29.2007 H   0  0  0  0  0  0  0  0  0  0  0  0
   -0.4170  -34.5051  -25.0877 H   0  0  0  0  0  0  0  0  0  0  0  0
    4.7980  -33.7104  -24.4272 H   0  0  0  0  0  0  0  0  0  0  0  0
    3.6070  -32.5596  -22.8990 H   0  0  0  0  0  0  0  0  0  0  0  0
    2.1573  -31.8842  -21.2727 H   0  0  0  0  0  0  0  0  0  0  0  0
  1  2  1  0  0  0  0
  2  3  1  0  0  0  0
  2  4  1  0  0  0  0
  2 10  1  0  0  0  0
  4  5  2  0  0  0  0
  4  9  1  0  0  0  0
  5  6  1  0  0  0  0
  5 31  1  0  0  0  0
  6  7  2  0  0  0  0
  7  8  1  0  0  0  0
  7 32  1  0  0  0  0
  8  9  2  0  0  0  0
  8 33  1  0  0  0  0
  9 34  1  0  0  0  0
 10 11  1  0  0  0  0
 10 35  1  0  0  0  0
 11 12  1  0  0  0  0
 11 36  1  0  0  0  0
 11 37  1  0  0  0  0
 12 13  2  0  0  0  0
 12 14  1  0  0  0  0
 13 17  1  0  0  0  0
 13 38  1  0  0  0  0
 14 15  2  0  0  0  0
 14 39  1  0  0  0  0
 15 16  1  0  0  0  0
 15 40  1  0  0  0  0
 16 17  2  0  0  0  0
 16 21  1  0  0  0  0
 17 18  1  0  0  0  0
 18 19  1  0  0  0  0
 18 41  1  0  0  0  0
 19 20  2  0  0  0  0
 19 21  1  0  0  0  0
 21 22  1  0  0  0  0
 22 23  2  0  0  0  0
 22 26  1  0  0  0  0
 23 24  1  0  0  0  0
 23 42  1  0  0  0  0
 24 25  1  0  0  0  0
 24 29  2  0  0  0  0
 26 27  1  0  0  0  0
 26 28  2  0  0  0  0
 27 43  1  0  0  0  0
 28 29  1  0  0  0  0
 28 44  1  0  0  0  0
 29 30  1  0  0  0  0
 30 45  1  0  0  0  0
M  CHG  2  18   1  21   1
M  END
$$$$
