4AWQ_592_A_1224
 OpenBabel03301717253D

 68 72  0  0  1  0  0  0  0  0999 V2000
   -3.8893    5.4308    1.2977 C   0  0  0  0  0  0  0  0  0  0  0  0
   -3.7486    4.0203    0.7881 C   0  0  0  0  0  0  0  0  0  0  0  0
   -3.9832    2.9124    1.6309 C   0  0  0  0  0  0  0  0  0  0  0  0
   -4.3160    3.2037    2.9291 O   0  0  0  0  0  0  0  0  0  0  0  0
   -4.6779    2.1243    3.7792 C   0  0  0  0  0  0  0  0  0  0  0  0
   -3.8723    1.6080    1.1275 C   0  0  0  0  0  0  0  0  0  0  0  0
   -3.5380    1.3872   -0.2063 C   0  0  0  0  0  0  0  0  0  0  0  0
   -3.3103    2.4689   -1.0483 C   0  0  0  0  0  0  0  0  0  0  0  0
   -3.4168    3.7809   -0.5602 C   0  0  0  0  0  0  0  0  0  0  0  0
   -3.2036    4.8969   -1.5256 C   0  0  0  0  0  0  0  0  0  0  0  0
   -2.3860    5.7835   -1.3135 O   0  0  0  0  0  0  0  0  0  0  0  0
   -4.0036    4.8167   -2.6388 N   0  0  0  0  0  0  0  0  0  0  0  0
   -3.9788    5.7665   -3.7564 C   0  0  1  0  0  0  0  0  0  0  0  0
   -2.6699    5.6976   -4.5810 C   0  0  0  0  0  0  0  0  0  0  0  0
   -5.2237    5.5543   -4.6446 C   0  0  0  0  0  0  0  0  0  0  0  0
   -5.0223    4.4626   -5.7144 C   0  0  2  0  0  0  0  0  0  0  0  0
   -4.5438    3.1148   -5.1521 C   0  0  0  0  0  0  0  0  0  0  0  0
   -3.0084    3.2252   -5.1185 C   0  0  0  0  0  0  0  0  0  0  0  0
   -2.6966    4.6227   -5.6875 C   0  0  1  0  0  0  0  0  0  0  0  0
   -3.8741    4.8452   -6.5221 N   0  0  0  0  0  0  0  0  0  0  0  0
   -3.8973    5.7296   -7.5662 C   0  0  0  0  0  0  0  0  0  0  0  0
   -5.0876    6.0114   -8.2332 C   0  0  0  0  0  0  0  0  0  0  0  0
   -5.1081    6.8521   -9.3412 C   0  0  0  0  0  0  0  0  0  0  0  0
   -2.7441    6.2885   -7.9908 N   0  0  0  0  0  0  0  0  0  0  0  0
   -2.7731    7.1046   -9.0829 C   0  0  0  0  0  0  0  0  0  0  0  0
   -3.9232    7.4117   -9.7964 C   0  0  0  0  0  0  0  0  0  0  0  0
   -3.8344    8.2557  -11.0176 C   0  0  0  0  0  0  0  0  0  0  0  0
   -2.7427    8.6601  -11.4023 O   0  0  0  0  0  0  0  0  0  0  0  0
   -5.0189    8.5246  -11.6758 N   0  0  0  0  0  0  0  0  0  0  0  0
   -5.0617    9.2659  -12.9138 C   0  0  0  0  0  0  0  0  0  0  0  0
   -5.0109   10.7656  -12.7518 C   0  0  0  0  0  0  0  0  0  0  0  0
   -4.7682   11.5461  -13.8918 C   0  0  0  0  0  0  0  0  0  0  0  0
   -4.7059   12.9385  -13.8016 C   0  0  0  0  0  0  0  0  0  0  0  0
   -4.8916   13.5655  -12.5729 C   0  0  0  0  0  0  0  0  0  0  0  0
   -5.1491   12.8031  -11.4364 C   0  0  0  0  0  0  0  0  0  0  0  0
   -5.2174   11.4124  -11.5256 C   0  0  0  0  0  0  0  0  0  0  0  0
   -4.1389    5.4745    2.3623 H   0  0  0  0  0  0  0  0  0  0  0  0
   -4.6918    5.9446    0.7586 H   0  0  0  0  0  0  0  0  0  0  0  0
   -2.9515    5.9791    1.1750 H   0  0  0  0  0  0  0  0  0  0  0  0
   -4.9407    2.5437    4.7549 H   0  0  0  0  0  0  0  0  0  0  0  0
   -3.8375    1.4387    3.9283 H   0  0  0  0  0  0  0  0  0  0  0  0
   -5.5576    1.5981    3.3943 H   0  0  0  0  0  0  0  0  0  0  0  0
   -4.0344    0.7380    1.7551 H   0  0  0  0  0  0  0  0  0  0  0  0
   -3.4494    0.3716   -0.5851 H   0  0  0  0  0  0  0  0  0  0  0  0
   -3.0342    2.2827   -2.0814 H   0  0  0  0  0  0  0  0  0  0  0  0
   -4.7517    4.1374   -2.6038 H   0  0  0  0  0  0  0  0  0  0  0  0
   -4.0396    6.7604   -3.2919 H   0  0  0  0  0  0  0  0  0  0  0  0
   -1.8031    5.5373   -3.9307 H   0  0  0  0  0  0  0  0  0  0  0  0
   -2.5229    6.6754   -5.0602 H   0  0  0  0  0  0  0  0  0  0  0  0
   -5.4472    6.5028   -5.1516 H   0  0  0  0  0  0  0  0  0  0  0  0
   -6.1005    5.3149   -4.0318 H   0  0  0  0  0  0  0  0  0  0  0  0
   -5.9439    4.3047   -6.2819 H   0  0  0  0  0  0  0  0  0  0  0  0
   -4.8215    2.3098   -5.8429 H   0  0  0  0  0  0  0  0  0  0  0  0
   -4.9912    2.8615   -4.1891 H   0  0  0  0  0  0  0  0  0  0  0  0
   -2.5846    2.4489   -5.7668 H   0  0  0  0  0  0  0  0  0  0  0  0
   -2.5868    3.0710   -4.1232 H   0  0  0  0  0  0  0  0  0  0  0  0
   -1.7543    4.6059   -6.2465 H   0  0  0  0  0  0  0  0  0  0  0  0
   -6.0231    5.5613   -7.9279 H   0  0  0  0  0  0  0  0  0  0  0  0
   -6.0625    7.0109   -9.8240 H   0  0  0  0  0  0  0  0  0  0  0  0
   -1.8036    7.5005   -9.3769 H   0  0  0  0  0  0  0  0  0  0  0  0
   -5.9077    8.2520  -11.2978 H   0  0  0  0  0  0  0  0  0  0  0  0
   -6.0085    8.9990  -13.4017 H   0  0  0  0  0  0  0  0  0  0  0  0
   -4.2367    8.9247  -13.5475 H   0  0  0  0  0  0  0  0  0  0  0  0
   -4.6097   11.0717  -14.8569 H   0  0  0  0  0  0  0  0  0  0  0  0
   -4.5001   13.5289  -14.6911 H   0  0  0  0  0  0  0  0  0  0  0  0
   -4.8281   14.6468  -12.5007 H   0  0  0  0  0  0  0  0  0  0  0  0
   -5.2849   13.2915  -10.4732 H   0  0  0  0  0  0  0  0  0  0  0  0
   -5.4096   10.8443  -10.6190 H   0  0  0  0  0  0  0  0  0  0  0  0
  1  2  1  0  0  0  0
  1 37  1  0  0  0  0
  1 38  1  0  0  0  0
  1 39  1  0  0  0  0
  2  3  2  0  0  0  0
  2  9  1  0  0  0  0
  3  4  1  0  0  0  0
  3  6  1  0  0  0  0
  4  5  1  0  0  0  0
  5 40  1  0  0  0  0
  5 41  1  0  0  0  0
  5 42  1  0  0  0  0
  6  7  2  0  0  0  0
  6 43  1  0  0  0  0
  7  8  1  0  0  0  0
  7 44  1  0  0  0  0
  8  9  2  0  0  0  0
  8 45  1  0  0  0  0
  9 10  1  0  0  0  0
 10 11  2  0  0  0  0
 10 12  1  0  0  0  0
 12 13  1  0  0  0  0
 12 46  1  0  0  0  0
 13 14  1  0  0  0  0
 13 15  1  0  0  0  0
 13 47  1  1  0  0  0
 14 19  1  0  0  0  0
 14 48  1  0  0  0  0
 14 49  1  0  0  0  0
 15 16  1  0  0  0  0
 15 50  1  0  0  0  0
 15 51  1  0  0  0  0
 16 17  1  0  0  0  0
 16 20  1  0  0  0  0
 16 52  1  6  0  0  0
 17 18  1  0  0  0  0
 17 53  1  0  0  0  0
 17 54  1  0  0  0  0
 18 19  1  0  0  0  0
 18 55  1  0  0  0  0
 18 56  1  0  0  0  0
 19 20  1  0  0  0  0
 19 57  1  6  0  0  0
 20 21  1  0  0  0  0
 21 22  2  0  0  0  0
 21 24  1  0  0  0  0
 22 23  1  0  0  0  0
 22 58  1  0  0  0  0
 23 26  2  0  0  0  0
 23 59  1  0  0  0  0
 24 25  2  0  0  0  0
 25 26  1  0  0  0  0
 25 60  1  0  0  0  0
 26 27  1  0  0  0  0
 27 28  2  0  0  0  0
 27 29  1  0  0  0  0
 29 30  1  0  0  0  0
 29 61  1  0  0  0  0
 30 31  1  0  0  0  0
 30 62  1  0  0  0  0
 30 63  1  0  0  0  0
 31 32  2  0  0  0  0
 31 36  1  0  0  0  0
 32 33  1  0  0  0  0
 32 64  1  0  0  0  0
 33 34  2  0  0  0  0
 33 65  1  0  0  0  0
 34 35  1  0  0  0  0
 34 66  1  0  0  0  0
 35 36  2  0  0  0  0
 35 67  1  0  0  0  0
 36 68  1  0  0  0  0
M  END
$$$$
