4CWN_6LV_A_1224
 OpenBabel03301717263D

 42 45  0  0  0  0  0  0  0  0999 V2000
   -2.1498   11.8189   24.1271 N   0  0  0  0  0  0  0  0  0  0  0  0
   -1.0752   11.2103   24.6012 C   0  0  0  0  0  0  0  0  0  0  0  0
    0.1177   11.1667   24.0080 N   0  0  0  0  0  0  0  0  0  0  0  0
    0.8150   10.4214   24.8858 N   0  3  0  0  0  0  0  0  0  0  0  0
    0.0326   10.0616   25.9502 C   0  0  0  0  0  0  0  0  0  0  0  0
   -1.1757   10.5552   25.7908 N   0  0  0  0  0  0  0  0  0  0  0  0
    2.1506   10.0288   24.7723 C   0  0  0  0  0  0  0  0  0  0  0  0
    2.7282    9.2855   25.6760 N   0  0  0  0  0  0  0  0  0  0  0  0
    1.9787    8.8880   26.8140 C   0  0  0  0  0  0  0  0  0  0  0  0
    2.6068    8.1175   27.7907 C   0  0  0  0  0  0  0  0  0  0  0  0
    1.8994    7.7027   28.9187 C   0  0  0  0  0  0  0  0  0  0  0  0
    0.5584    8.0585   29.0804 C   0  0  0  0  0  0  0  0  0  0  0  0
   -0.0832    8.8382   28.1184 C   0  0  0  0  0  0  0  0  0  0  0  0
    0.6251    9.2503   26.9914 C   0  0  0  0  0  0  0  0  0  0  0  0
    2.8931   10.5443   23.5722 C   0  0  0  0  0  0  0  0  0  0  0  0
    3.8643   11.6361   23.9618 C   0  0  0  0  0  0  0  0  0  0  0  0
    3.3941   12.8400   24.5064 C   0  0  0  0  0  0  0  0  0  0  0  0
    4.2767   13.8491   24.8929 C   0  0  0  0  0  0  0  0  0  0  0  0
    3.6719   14.9547   25.4239 O   0  0  0  0  0  0  0  0  0  0  0  0
    4.5191   16.0013   25.8782 C   0  0  0  0  0  0  0  0  0  0  0  0
    5.6460   13.6595   24.7119 C   0  0  0  0  0  0  0  0  0  0  0  0
    6.1377   12.4640   24.1701 C   0  0  0  0  0  0  0  0  0  0  0  0
    5.2463   11.4569   23.7991 C   0  0  0  0  0  0  0  0  0  0  0  0
    7.5003   12.4137   24.0366 O   0  0  0  0  0  0  0  0  0  0  0  0
    8.0763   11.1454   23.7450 C   0  0  0  0  0  0  0  0  0  0  0  0
   -3.0114   11.8285   24.6552 H   0  0  0  0  0  0  0  0  0  0  0  0
   -2.1155   12.3556   23.2722 H   0  0  0  0  0  0  0  0  0  0  0  0
    3.6520    7.8429   27.6673 H   0  0  0  0  0  0  0  0  0  0  0  0
    2.3963    7.0989   29.6741 H   0  0  0  0  0  0  0  0  0  0  0  0
    0.0113    7.7279   29.9602 H   0  0  0  0  0  0  0  0  0  0  0  0
   -1.1260    9.1197   28.2452 H   0  0  0  0  0  0  0  0  0  0  0  0
    2.2380   10.9036   22.7728 H   0  0  0  0  0  0  0  0  0  0  0  0
    3.4437    9.6931   23.1525 H   0  0  0  0  0  0  0  0  0  0  0  0
    2.3268   13.0047   24.6440 H   0  0  0  0  0  0  0  0  0  0  0  0
    3.8803   16.8002   26.2701 H   0  0  0  0  0  0  0  0  0  0  0  0
    5.1062   16.4199   25.0542 H   0  0  0  0  0  0  0  0  0  0  0  0
    5.1655   15.6615   26.6941 H   0  0  0  0  0  0  0  0  0  0  0  0
    6.3639   14.4252   24.9874 H   0  0  0  0  0  0  0  0  0  0  0  0
    5.6024   10.5215   23.3781 H   0  0  0  0  0  0  0  0  0  0  0  0
    9.1592   11.2833   23.6647 H   0  0  0  0  0  0  0  0  0  0  0  0
    7.7279   10.7504   22.7853 H   0  0  0  0  0  0  0  0  0  0  0  0
    7.8879   10.4355   24.5572 H   0  0  0  0  0  0  0  0  0  0  0  0
  1  2  1  0  0  0  0
  1 26  1  0  0  0  0
  1 27  1  0  0  0  0
  2  3  1  0  0  0  0
  2  6  2  0  0  0  0
  3  4  1  0  0  0  0
  4  5  2  0  0  0  0
  4  7  1  0  0  0  0
  5  6  1  0  0  0  0
  5 14  1  0  0  0  0
  7  8  2  0  0  0  0
  7 15  1  0  0  0  0
  8  9  1  0  0  0  0
  9 10  2  0  0  0  0
  9 14  1  0  0  0  0
 10 11  1  0  0  0  0
 10 28  1  0  0  0  0
 11 12  2  0  0  0  0
 11 29  1  0  0  0  0
 12 13  1  0  0  0  0
 12 30  1  0  0  0  0
 13 14  2  0  0  0  0
 13 31  1  0  0  0  0
 15 16  1  0  0  0  0
 15 32  1  0  0  0  0
 15 33  1  0  0  0  0
 16 17  2  0  0  0  0
 16 23  1  0  0  0  0
 17 18  1  0  0  0  0
 17 34  1  0  0  0  0
 18 19  1  0  0  0  0
 18 21  2  0  0  0  0
 19 20  1  0  0  0  0
 20 35  1  0  0  0  0
 20 36  1  0  0  0  0
 20 37  1  0  0  0  0
 21 22  1  0  0  0  0
 21 38  1  0  0  0  0
 22 23  2  0  0  0  0
 22 24  1  0  0  0  0
 23 39  1  0  0  0  0
 24 25  1  0  0  0  0
 25 40  1  0  0  0  0
 25 41  1  0  0  0  0
 25 42  1  0  0  0  0
M  CHG  1   4   1
M  END
$$$$
