2YI6_6QM_A_1225
 OpenBabel03301717113D

 42 44  0  0  0  0  0  0  0  0999 V2000
   29.9142    9.3664   28.0710 N   0  0  0  0  0  0  0  0  0  0  0  0
   29.8315   10.1543   27.0343 N   0  0  0  0  0  0  0  0  0  0  0  0
   30.5975    9.6813   25.9809 C   0  0  0  0  0  0  0  0  0  0  0  0
   31.2799    8.5007   26.2134 C   0  0  0  0  0  0  0  0  0  0  0  0
   30.7070   10.4256   24.7721 C   0  0  0  0  0  0  0  0  0  0  0  0
   32.1860    7.7385   25.3545 C   0  0  0  0  0  0  0  0  0  0  0  0
   33.4787    7.4408   25.8110 C   0  0  0  0  0  0  0  0  0  0  0  0
   34.3936    6.7568   25.0071 C   0  0  0  0  0  0  0  0  0  0  0  0
   34.0153    6.3812   23.7168 C   0  0  0  0  0  0  0  0  0  0  0  0
   32.7327    6.7000   23.2595 C   0  0  0  0  0  0  0  0  0  0  0  0
   31.8209    7.3686   24.0640 C   0  0  0  0  0  0  0  0  0  0  0  0
   29.5576   10.7534   24.0346 C   0  0  0  0  0  0  0  0  0  0  0  0
   29.6591   11.4550   22.8614 C   0  0  0  0  0  0  0  0  0  0  0  0
   30.9210   11.8537   22.4228 C   0  0  0  0  0  0  0  0  0  0  0  0
   32.0835   11.5175   23.1337 C   0  0  0  0  0  0  0  0  0  0  0  0
   31.9642   10.8222   24.3180 C   0  0  0  0  0  0  0  0  0  0  0  0
   30.9418   12.5956   21.2779 O   0  0  0  0  0  0  0  0  0  0  0  0
   28.3269   10.3482   24.4766 O   0  0  0  0  0  0  0  0  0  0  0  0
   34.9583    5.7273   22.9443 O   0  0  0  0  0  0  0  0  0  0  0  0
   30.9143    8.0442   27.8222 S   0  0  0  0  0  0  0  0  0  0  0  0
   34.4866    5.5399   21.6065 C   0  0  0  0  0  0  0  0  0  0  0  0
   35.4561    4.8308   20.7002 C   0  0  0  0  0  0  0  0  0  0  0  0
   33.4458   11.9754   22.7161 C   0  0  0  0  0  0  0  0  0  0  0  0
   33.7149   13.3228   23.3691 C   0  0  0  0  0  0  0  0  0  0  0  0
   33.7930    7.7633   26.8061 H   0  0  0  0  0  0  0  0  0  0  0  0
   35.3795    6.5208   25.3931 H   0  0  0  0  0  0  0  0  0  0  0  0
   32.3806    6.4356   22.2655 H   0  0  0  0  0  0  0  0  0  0  0  0
   30.8432    7.6001   23.6459 H   0  0  0  0  0  0  0  0  0  0  0  0
   28.7851   11.7088   22.2669 H   0  0  0  0  0  0  0  0  0  0  0  0
   32.8521   10.5806   24.9051 H   0  0  0  0  0  0  0  0  0  0  0  0
   31.8585   12.8291   21.0853 H   0  0  0  0  0  0  0  0  0  0  0  0
   27.6489   10.7462   23.9031 H   0  0  0  0  0  0  0  0  0  0  0  0
   34.2834    6.5244   21.1664 H   0  0  0  0  0  0  0  0  0  0  0  0
   33.5840    4.9181   21.6315 H   0  0  0  0  0  0  0  0  0  0  0  0
   36.3949    5.3811   20.6195 H   0  0  0  0  0  0  0  0  0  0  0  0
   35.0008    4.7530   19.7059 H   0  0  0  0  0  0  0  0  0  0  0  0
   35.6650    3.8241   21.0687 H   0  0  0  0  0  0  0  0  0  0  0  0
   33.5163   12.0389   21.6259 H   0  0  0  0  0  0  0  0  0  0  0  0
   34.2034   11.2383   23.0123 H   0  0  0  0  0  0  0  0  0  0  0  0
   32.9521   14.0564   23.0862 H   0  0  0  0  0  0  0  0  0  0  0  0
   34.6948   13.7057   23.0661 H   0  0  0  0  0  0  0  0  0  0  0  0
   33.6965   13.2394   24.4607 H   0  0  0  0  0  0  0  0  0  0  0  0
  1  2  2  0  0  0  0
  1 20  1  0  0  0  0
  2  3  1  0  0  0  0
  3  4  2  0  0  0  0
  3  5  1  0  0  0  0
  4  6  1  0  0  0  0
  4 20  1  0  0  0  0
  5 12  2  0  0  0  0
  5 16  1  0  0  0  0
  6  7  2  0  0  0  0
  6 11  1  0  0  0  0
  7  8  1  0  0  0  0
  7 25  1  0  0  0  0
  8  9  2  0  0  0  0
  8 26  1  0  0  0  0
  9 10  1  0  0  0  0
  9 19  1  0  0  0  0
 10 11  2  0  0  0  0
 10 27  1  0  0  0  0
 11 28  1  0  0  0  0
 12 13  1  0  0  0  0
 12 18  1  0  0  0  0
 13 14  2  0  0  0  0
 13 29  1  0  0  0  0
 14 15  1  0  0  0  0
 14 17  1  0  0  0  0
 15 16  2  0  0  0  0
 15 23  1  0  0  0  0
 16 30  1  0  0  0  0
 17 31  1  0  0  0  0
 18 32  1  0  0  0  0
 19 21  1  0  0  0  0
 21 22  1  0  0  0  0
 21 33  1  0  0  0  0
 21 34  1  0  0  0  0
 22 35  1  0  0  0  0
 22 36  1  0  0  0  0
 22 37  1  0  0  0  0
 23 24  1  0  0  0  0
 23 38  1  0  0  0  0
 23 39  1  0  0  0  0
 24 40  1  0  0  0  0
 24 41  1  0  0  0  0
 24 42  1  0  0  0  0
M  END
$$$$
