4AWP_99A_A_1224
 OpenBabel03301717253D

 71 75  0  0  1  0  0  0  0  0999 V2000
   -9.8714  -21.8894  -19.4929 C   0  0  0  0  0  0  0  0  0  0  0  0
  -10.2264  -21.0245  -18.3134 C   0  0  0  0  0  0  0  0  0  0  0  0
  -10.7067  -21.6648  -17.1518 C   0  0  0  0  0  0  0  0  0  0  0  0
  -11.0633  -20.9190  -16.0243 C   0  0  0  0  0  0  0  0  0  0  0  0
  -11.7404  -21.6190  -14.8872 C   0  0  0  0  0  0  0  0  0  0  0  0
  -12.8206  -21.2939  -14.5495 O   0  0  0  0  0  0  0  0  0  0  0  0
  -11.0408  -22.6694  -14.3165 N   0  0  0  0  0  0  0  0  0  0  0  0
  -10.9500  -19.5167  -16.0210 C   0  0  0  0  0  0  0  0  0  0  0  0
  -11.3292  -18.6536  -14.8524 C   0  0  0  0  0  0  0  0  0  0  0  0
  -10.4380  -18.8831  -17.1654 C   0  0  0  0  0  0  0  0  0  0  0  0
  -10.0693  -19.6142  -18.3078 C   0  0  0  0  0  0  0  0  0  0  0  0
   -9.6267  -18.8180  -19.5242 C   0  0  0  0  0  0  0  0  0  0  0  0
   -8.7226  -18.0204  -19.5218 O   0  0  0  0  0  0  0  0  0  0  0  0
  -10.4443  -19.0891  -20.5933 N   0  0  0  0  0  0  0  0  0  0  0  0
  -10.4523  -18.4067  -21.8734 C   0  0  2  0  0  0  0  0  0  0  0  0
  -11.7720  -18.5651  -22.6592 C   0  0  0  0  0  0  0  0  0  0  0  0
   -9.1498  -18.3716  -22.6992 C   0  0  0  0  0  0  0  0  0  0  0  0
   -9.2132  -19.4602  -23.7506 C   0  0  1  0  0  0  0  0  0  0  0  0
   -9.5826  -20.8783  -23.2249 C   0  0  0  0  0  0  0  0  0  0  0  0
  -11.1224  -20.9572  -23.2147 C   0  0  0  0  0  0  0  0  0  0  0  0
  -11.5898  -19.6040  -23.7732 C   0  0  2  0  0  0  0  0  0  0  0  0
  -10.4183  -19.1760  -24.5499 N   0  0  0  0  0  0  0  0  0  0  0  0
  -10.4563  -18.2837  -25.5999 C   0  0  0  0  0  0  0  0  0  0  0  0
  -11.6633  -17.9929  -26.2378 C   0  0  0  0  0  0  0  0  0  0  0  0
  -11.6878  -17.1592  -27.3600 C   0  0  0  0  0  0  0  0  0  0  0  0
   -9.3061  -17.7281  -26.0548 N   0  0  0  0  0  0  0  0  0  0  0  0
   -9.3441  -16.9085  -27.1487 C   0  0  0  0  0  0  0  0  0  0  0  0
  -10.5055  -16.5966  -27.8369 C   0  0  0  0  0  0  0  0  0  0  0  0
  -10.4417  -15.7035  -29.0500 C   0  0  0  0  0  0  0  0  0  0  0  0
   -9.3994  -15.2235  -29.4178 O   0  0  0  0  0  0  0  0  0  0  0  0
  -11.6561  -15.5005  -29.6899 N   0  0  0  0  0  0  0  0  0  0  0  0
  -11.7908  -14.7435  -30.9298 C   0  0  0  0  0  0  0  0  0  0  0  0
  -11.7071  -13.2443  -30.8135 C   0  0  0  0  0  0  0  0  0  0  0  0
  -11.4158  -12.5073  -31.9886 C   0  0  0  0  0  0  0  0  0  0  0  0
  -11.3136  -11.1201  -31.9460 C   0  0  0  0  0  0  0  0  0  0  0  0
  -11.5482  -10.4545  -30.7374 C   0  0  0  0  0  0  0  0  0  0  0  0
  -11.8532  -11.1679  -29.5731 C   0  0  0  0  0  0  0  0  0  0  0  0
  -11.9471  -12.5572  -29.6162 C   0  0  0  0  0  0  0  0  0  0  0  0
  -10.0641  -22.9497  -19.2833 H   0  0  0  0  0  0  0  0  0  0  0  0
   -8.8132  -21.7808  -19.7433 H   0  0  0  0  0  0  0  0  0  0  0  0
  -10.4759  -21.6261  -20.3607 H   0  0  0  0  0  0  0  0  0  0  0  0
  -10.8263  -22.7549  -17.1467 H   0  0  0  0  0  0  0  0  0  0  0  0
  -11.5073  -23.2010  -13.5793 H   0  0  0  0  0  0  0  0  0  0  0  0
  -10.1171  -22.9105  -14.6005 H   0  0  0  0  0  0  0  0  0  0  0  0
  -11.7048  -19.2492  -14.0179 H   0  0  0  0  0  0  0  0  0  0  0  0
  -12.1091  -17.9355  -15.1336 H   0  0  0  0  0  0  0  0  0  0  0  0
  -10.4576  -18.0933  -14.4905 H   0  0  0  0  0  0  0  0  0  0  0  0
  -10.3355  -17.7954  -17.1635 H   0  0  0  0  0  0  0  0  0  0  0  0
  -11.2354  -19.6641  -20.3621 H   0  0  0  0  0  0  0  0  0  0  0  0
  -10.3495  -17.3925  -21.6262 H   0  0  0  0  0  0  0  0  0  0  0  0
  -12.0174  -17.5853  -23.1053 H   0  0  0  0  0  0  0  0  0  0  0  0
  -12.6210  -18.8169  -22.0017 H   0  0  0  0  0  0  0  0  0  0  0  0
   -8.2691  -18.3834  -22.0411 H   0  0  0  0  0  0  0  0  0  0  0  0
   -9.1338  -17.3538  -23.1677 H   0  0  0  0  0  0  0  0  0  0  0  0
   -8.2302  -19.5033  -24.2286 H   0  0  0  0  0  0  0  0  0  0  0  0
   -9.1862  -21.0854  -22.2273 H   0  0  0  0  0  0  0  0  0  0  0  0
   -9.1960  -21.6563  -23.9020 H   0  0  0  0  0  0  0  0  0  0  0  0
  -11.5067  -21.1353  -22.2046 H   0  0  0  0  0  0  0  0  0  0  0  0
  -11.4758  -21.7883  -23.8444 H   0  0  0  0  0  0  0  0  0  0  0  0
  -12.5265  -19.7625  -24.3229 H   0  0  0  0  0  0  0  0  0  0  0  0
  -12.6007  -18.3959  -25.8668 H   0  0  0  0  0  0  0  0  0  0  0  0
  -12.6413  -16.9746  -27.8349 H   0  0  0  0  0  0  0  0  0  0  0  0
   -8.3790  -16.5148  -27.4716 H   0  0  0  0  0  0  0  0  0  0  0  0
  -12.4849  -15.9233  -29.3256 H   0  0  0  0  0  0  0  0  0  0  0  0
  -12.7719  -14.9893  -31.3547 H   0  0  0  0  0  0  0  0  0  0  0  0
  -11.0133  -15.0830  -31.6187 H   0  0  0  0  0  0  0  0  0  0  0  0
  -11.2691  -13.0245  -32.9373 H   0  0  0  0  0  0  0  0  0  0  0  0
  -11.0489  -10.5589  -32.8403 H   0  0  0  0  0  0  0  0  0  0  0  0
  -11.5005   -9.3753  -30.7081 H   0  0  0  0  0  0  0  0  0  0  0  0
  -12.0094  -10.6335  -28.6373 H   0  0  0  0  0  0  0  0  0  0  0  0
  -12.2050  -13.1109  -28.7171 H   0  0  0  0  0  0  0  0  0  0  0  0
  1  2  1  0  0  0  0
  1 39  1  0  0  0  0
  1 40  1  0  0  0  0
  1 41  1  0  0  0  0
  2  3  2  0  0  0  0
  2 11  1  0  0  0  0
  3  4  1  0  0  0  0
  3 42  1  0  0  0  0
  4  5  1  0  0  0  0
  4  8  2  0  0  0  0
  5  6  2  0  0  0  0
  5  7  1  0  0  0  0
  7 43  1  0  0  0  0
  7 44  1  0  0  0  0
  8  9  1  0  0  0  0
  8 10  1  0  0  0  0
  9 45  1  0  0  0  0
  9 46  1  0  0  0  0
  9 47  1  0  0  0  0
 10 11  2  0  0  0  0
 10 48  1  0  0  0  0
 11 12  1  0  0  0  0
 12 13  2  0  0  0  0
 12 14  1  0  0  0  0
 14 15  1  0  0  0  0
 14 49  1  0  0  0  0
 15 16  1  0  0  0  0
 15 17  1  0  0  0  0
 15 50  1  1  0  0  0
 16 21  1  0  0  0  0
 16 51  1  0  0  0  0
 16 52  1  0  0  0  0
 17 18  1  0  0  0  0
 17 53  1  0  0  0  0
 17 54  1  0  0  0  0
 18 19  1  0  0  0  0
 18 22  1  0  0  0  0
 18 55  1  6  0  0  0
 19 20  1  0  0  0  0
 19 56  1  0  0  0  0
 19 57  1  0  0  0  0
 20 21  1  0  0  0  0
 20 58  1  0  0  0  0
 20 59  1  0  0  0  0
 21 22  1  0  0  0  0
 21 60  1  6  0  0  0
 22 23  1  0  0  0  0
 23 24  2  0  0  0  0
 23 26  1  0  0  0  0
 24 25  1  0  0  0  0
 24 61  1  0  0  0  0
 25 28  2  0  0  0  0
 25 62  1  0  0  0  0
 26 27  2  0  0  0  0
 27 28  1  0  0  0  0
 27 63  1  0  0  0  0
 28 29  1  0  0  0  0
 29 30  2  0  0  0  0
 29 31  1  0  0  0  0
 31 32  1  0  0  0  0
 31 64  1  0  0  0  0
 32 33  1  0  0  0  0
 32 65  1  0  0  0  0
 32 66  1  0  0  0  0
 33 34  2  0  0  0  0
 33 38  1  0  0  0  0
 34 35  1  0  0  0  0
 34 67  1  0  0  0  0
 35 36  2  0  0  0  0
 35 68  1  0  0  0  0
 36 37  1  0  0  0  0
 36 69  1  0  0  0  0
 37 38  2  0  0  0  0
 37 70  1  0  0  0  0
 38 71  1  0  0  0  0
M  END
$$$$
