4B7P_9UN_A_1226
 OpenBabel03301717253D

 56 59  0  0  1  0  0  0  0  0999 V2000
    8.0588    3.8332   11.0526 C   0  0  0  0  0  0  0  0  0  0  0  0
    6.8144    4.3642   11.4215 C   0  0  0  0  0  0  0  0  0  0  0  0
    5.6742    3.5923   11.3039 C   0  0  0  0  0  0  0  0  0  0  0  0
    5.7843    2.2949   10.8055 C   0  0  0  0  0  0  0  0  0  0  0  0
    7.0265    1.7242   10.4571 C   0  0  0  0  0  0  0  0  0  0  0  0
    8.1566    2.5193   10.5862 C   0  0  0  0  0  0  0  0  0  0  0  0
    9.3827    2.0254   10.2550 O   0  0  0  0  0  0  0  0  0  0  0  0
    6.7753    5.6604   11.8622 O   0  0  0  0  0  0  0  0  0  0  0  0
    4.6349    1.5474   10.7519 O   0  0  0  0  0  0  0  0  0  0  0  0
    4.4357    0.7167    9.6899 C   0  0  0  0  0  0  0  0  0  0  0  0
    3.9330   -0.5324   10.0506 C   0  0  0  0  0  0  0  0  0  0  0  0
    3.6376   -1.4448    9.0631 C   0  0  0  0  0  0  0  0  0  0  0  0
    3.8811   -1.0916    7.7451 C   0  0  0  0  0  0  0  0  0  0  0  0
    4.3615    0.1641    7.3545 C   0  0  0  0  0  0  0  0  0  0  0  0
    4.6380    1.0847    8.3579 C   0  0  0  0  0  0  0  0  0  0  0  0
    3.5353   -2.0911    6.7485 N   0  0  0  0  0  0  0  0  0  0  0  0
    3.0084   -1.6685    5.7089 O   0  0  0  0  0  0  0  0  0  0  0  0
    3.7414   -3.2757    7.0170 O   0  0  0  0  0  0  0  0  0  0  0  0
    4.3376    4.1284   11.5616 C   0  0  0  0  0  0  0  0  0  0  0  0
    4.1221    4.9014   12.6677 O   0  0  0  0  0  0  0  0  0  0  0  0
    2.7671    5.2772   12.7082 N   0  0  0  0  0  0  0  0  0  0  0  0
    2.2258    4.7468   11.5988 C   0  0  0  0  0  0  0  0  0  0  0  0
    3.1809    4.0405   10.8616 C   0  0  0  0  0  0  0  0  0  0  0  0
    0.8230    4.8859   11.1928 C   0  0  0  0  0  0  0  0  0  0  0  0
    0.4520    4.7131   10.0298 O   0  0  0  0  0  0  0  0  0  0  0  0
   -0.0734    5.1212   12.2134 N   0  0  0  0  0  0  0  0  0  0  0  0
   -1.5128    5.1335   12.0215 C   0  0  2  0  0  0  0  0  0  0  0  0
   -2.1765    5.7121   13.2709 C   0  0  0  0  0  0  0  0  0  0  0  0
   -3.6855    5.6057   13.1768 C   0  0  0  0  0  0  0  0  0  0  0  0
   -4.0691    4.1580   12.9956 N   0  3  2  0  0  0  0  0  0  0  0  0
   -3.5074    3.6298   11.7062 C   0  0  0  0  0  0  0  0  0  0  0  0
   -2.0028    3.7088   11.7615 C   0  0  0  0  0  0  0  0  0  0  0  0
   -5.5628    3.9649   13.0085 C   0  0  0  0  0  0  0  0  0  0  0  0
    8.9514    4.4539   11.1255 H   0  0  0  0  0  0  0  0  0  0  0  0
    7.1036    0.7039   10.1169 H   0  0  0  0  0  0  0  0  0  0  0  0
    9.2937    1.1098    9.9456 H   0  0  0  0  0  0  0  0  0  0  0  0
    5.8568    5.9162   12.0320 H   0  0  0  0  0  0  0  0  0  0  0  0
    3.7918   -0.7856   11.0982 H   0  0  0  0  0  0  0  0  0  0  0  0
    3.2125   -2.4189    9.3257 H   0  0  0  0  0  0  0  0  0  0  0  0
    4.5070    0.4183    6.3093 H   0  0  0  0  0  0  0  0  0  0  0  0
    5.0175    2.0781    8.0950 H   0  0  0  0  0  0  0  0  0  0  0  0
    3.0346    3.5127    9.9358 H   0  0  0  0  0  0  0  0  0  0  0  0
    0.3069    5.1400   13.1572 H   0  0  0  0  0  0  0  0  0  0  0  0
   -1.7586    5.7674   11.1549 H   0  0  0  0  0  0  0  0  0  0  0  0
   -1.8884    6.7626   13.4006 H   0  0  0  0  0  0  0  0  0  0  0  0
   -1.8087    5.1786   14.1573 H   0  0  0  0  0  0  0  0  0  0  0  0
   -4.0616    6.1483   12.3027 H   0  0  0  0  0  0  0  0  0  0  0  0
   -4.1727    5.9700   14.0860 H   0  0  0  0  0  0  0  0  0  0  0  0
   -3.6758    3.6172   13.7839 H   0  0  0  0  0  0  0  0  0  0  0  0
   -3.9147    4.2493   10.8998 H   0  0  0  0  0  0  0  0  0  0  0  0
   -3.8475    2.5959   11.5907 H   0  0  0  0  0  0  0  0  0  0  0  0
   -1.6278    3.0585   12.5612 H   0  0  0  0  0  0  0  0  0  0  0  0
   -1.5999    3.3295   10.8192 H   0  0  0  0  0  0  0  0  0  0  0  0
   -5.9783    4.5165   12.1605 H   0  0  0  0  0  0  0  0  0  0  0  0
   -5.9539    4.3436   13.9554 H   0  0  0  0  0  0  0  0  0  0  0  0
   -5.7689    2.8939   12.9092 H   0  0  0  0  0  0  0  0  0  0  0  0
  1  2  2  0  0  0  0
  1  6  1  0  0  0  0
  1 34  1  0  0  0  0
  2  3  1  0  0  0  0
  2  8  1  0  0  0  0
  3  4  2  0  0  0  0
  3 19  1  0  0  0  0
  4  5  1  0  0  0  0
  4  9  1  0  0  0  0
  5  6  2  0  0  0  0
  5 35  1  0  0  0  0
  6  7  1  0  0  0  0
  7 36  1  0  0  0  0
  8 37  1  0  0  0  0
  9 10  1  0  0  0  0
 10 11  2  0  0  0  0
 10 15  1  0  0  0  0
 11 12  1  0  0  0  0
 11 38  1  0  0  0  0
 12 13  2  0  0  0  0
 12 39  1  0  0  0  0
 13 14  1  0  0  0  0
 13 16  1  0  0  0  0
 14 15  2  0  0  0  0
 14 40  1  0  0  0  0
 15 41  1  0  0  0  0
 16 17  2  0  0  0  0
 16 18  2  0  0  0  0
 19 20  1  0  0  0  0
 19 23  2  0  0  0  0
 20 21  1  0  0  0  0
 21 22  2  0  0  0  0
 22 23  1  0  0  0  0
 22 24  1  0  0  0  0
 23 42  1  0  0  0  0
 24 25  2  0  0  0  0
 24 26  1  0  0  0  0
 26 27  1  0  0  0  0
 26 43  1  0  0  0  0
 27 28  1  0  0  0  0
 27 32  1  0  0  0  0
 27 44  1  6  0  0  0
 28 29  1  0  0  0  0
 28 45  1  0  0  0  0
 28 46  1  0  0  0  0
 29 30  1  0  0  0  0
 29 47  1  0  0  0  0
 29 48  1  0  0  0  0
 30 31  1  0  0  0  0
 30 33  1  0  0  0  0
 30 49  1  1  0  0  0
 31 32  1  0  0  0  0
 31 50  1  0  0  0  0
 31 51  1  0  0  0  0
 32 52  1  0  0  0  0
 32 53  1  0  0  0  0
 33 54  1  0  0  0  0
 33 55  1  0  0  0  0
 33 56  1  0  0  0  0
M  CHG  1  30   1
M  END
$$$$
