2QFO_A13_A_900
 OpenBabel03301717023D

 18 18  0  0  0  0  0  0  0  0999 V2000
    3.7316   34.4691   51.0228 C   0  0  0  0  0  0  0  0  0  0  0  0
    2.3961   34.1769   50.7274 C   0  0  0  0  0  0  0  0  0  0  0  0
    2.1721   33.5374   49.5028 C   0  0  0  0  0  0  0  0  0  0  0  0
    3.1861   33.2224   48.6602 N   0  0  0  0  0  0  0  0  0  0  0  0
    4.4074   33.5522   49.0464 C   0  0  0  0  0  0  0  0  0  0  0  0
    4.7447   34.1565   50.1802 N   0  0  0  0  0  0  0  0  0  0  0  0
    5.4217   33.2304   48.1712 N   0  0  0  0  0  0  0  0  0  0  0  0
    4.1684   35.1568   52.3046 C   0  0  0  0  0  0  0  0  0  0  0  0
    0.7938   33.1336   49.0323 C   0  0  0  0  0  0  0  0  0  0  0  0
    0.6575   31.7772   48.9192 F   0  0  0  0  0  0  0  0  0  0  0  0
    0.4717   33.6521   47.8075 F   0  0  0  0  0  0  0  0  0  0  0  0
   -0.1852   33.5361   49.8917 F   0  0  0  0  0  0  0  0  0  0  0  0
    1.5655   34.4243   51.3969 H   0  0  0  0  0  0  0  0  0  0  0  0
    6.3550   33.4614   48.4293 H   0  0  0  0  0  0  0  0  0  0  0  0
    5.1742   32.7782   47.3162 H   0  0  0  0  0  0  0  0  0  0  0  0
    3.3000   35.3784   52.9296 H   0  0  0  0  0  0  0  0  0  0  0  0
    4.6898   36.1044   52.0940 H   0  0  0  0  0  0  0  0  0  0  0  0
    4.8555   34.5209   52.8855 H   0  0  0  0  0  0  0  0  0  0  0  0
  1  2  2  0  0  0  0
  1  6  1  0  0  0  0
  1  8  1  0  0  0  0
  2  3  1  0  0  0  0
  2 13  1  0  0  0  0
  3  4  2  0  0  0  0
  3  9  1  0  0  0  0
  4  5  1  0  0  0  0
  5  6  2  0  0  0  0
  5  7  1  0  0  0  0
  7 14  1  0  0  0  0
  7 15  1  0  0  0  0
  8 16  1  0  0  0  0
  8 17  1  0  0  0  0
  8 18  1  0  0  0  0
  9 10  1  0  0  0  0
  9 11  1  0  0  0  0
  9 12  1  0  0  0  0
M  END
$$$$
