2QG2_A91_A_300
 OpenBabel03301717033D

 39 41  0  0  0  0  0  0  0  0999 V2000
    4.7385   29.4898   23.3156 C   0  0  0  0  0  0  0  0  0  0  0  0
    4.6573   30.4852   24.2084 C   0  0  0  0  0  0  0  0  0  0  0  0
    5.8384   31.1847   24.0653 N   0  3  0  0  0  0  0  0  0  0  0  0
    6.6702   30.5677   23.1384 C   0  0  0  0  0  0  0  0  0  0  0  0
    5.9540   29.5404   22.5597 O   0  0  0  0  0  0  0  0  0  0  0  0
    7.8275   30.9119   22.8856 O   0  0  0  0  0  0  0  0  0  0  0  0
    6.3630   32.3443   24.6737 N   0  0  0  0  0  0  0  0  0  0  0  0
    5.3508   33.2270   25.1388 C   0  0  0  0  0  0  0  0  0  0  0  0
    5.7997   34.5461   25.7264 C   0  0  0  0  0  0  0  0  0  0  0  0
    4.8335   35.5920   25.8559 C   0  0  0  0  0  0  0  0  0  0  0  0
    5.2182   36.8205   26.4253 C   0  0  0  0  0  0  0  0  0  0  0  0
    6.5355   37.0063   26.8712 C   0  0  0  0  0  0  0  0  0  0  0  0
    7.4825   35.9681   26.7539 C   0  0  0  0  0  0  0  0  0  0  0  0
    7.1179   34.7407   26.1879 C   0  0  0  0  0  0  0  0  0  0  0  0
    3.4787   35.4321   25.4152 C   0  0  0  0  0  0  0  0  0  0  0  0
    2.3152   35.3034   25.0286 C   0  0  0  0  0  0  0  0  0  0  0  0
    1.0263   35.2386   24.4492 C   0  0  0  0  0  0  0  0  0  0  0  0
    0.8478   35.7851   23.1983 C   0  0  0  0  0  0  0  0  0  0  0  0
   -0.4205   35.7102   22.6871 C   0  0  0  0  0  0  0  0  0  0  0  0
   -1.4479   35.1377   23.3548 N   0  0  0  0  0  0  0  0  0  0  0  0
   -1.1754   34.6341   24.5671 C   0  0  0  0  0  0  0  0  0  0  0  0
    0.0272   34.6523   25.1577 N   0  0  0  0  0  0  0  0  0  0  0  0
   -0.6988   36.2823   21.3326 C   0  0  0  0  0  0  0  0  0  0  0  0
   -2.2127   34.0521   25.2564 N   0  0  0  0  0  0  0  0  0  0  0  0
    4.0796   28.6559   23.0503 H   0  0  0  0  0  0  0  0  0  0  0  0
    3.8569   30.7144   24.9145 H   0  0  0  0  0  0  0  0  0  0  0  0
    6.8737   32.8636   23.9356 H   0  0  0  0  0  0  0  0  0  0  0  0
    4.8352   32.6637   25.9133 H   0  0  0  0  0  0  0  0  0  0  0  0
    4.7271   33.4431   24.2677 H   0  0  0  0  0  0  0  0  0  0  0  0
    4.4853   37.6290   26.5206 H   0  0  0  0  0  0  0  0  0  0  0  0
    6.8276   37.9631   27.3134 H   0  0  0  0  0  0  0  0  0  0  0  0
    8.5058   36.1201   27.1062 H   0  0  0  0  0  0  0  0  0  0  0  0
    7.8600   33.9326   26.0990 H   0  0  0  0  0  0  0  0  0  0  0  0
    1.6790   36.2445   22.6689 H   0  0  0  0  0  0  0  0  0  0  0  0
    0.2165   36.7130   20.9050 H   0  0  0  0  0  0  0  0  0  0  0  0
   -1.4532   37.0730   21.4034 H   0  0  0  0  0  0  0  0  0  0  0  0
   -1.0612   35.4990   20.6584 H   0  0  0  0  0  0  0  0  0  0  0  0
   -2.0220   33.6743   26.1641 H   0  0  0  0  0  0  0  0  0  0  0  0
   -3.1209   34.0286   24.8328 H   0  0  0  0  0  0  0  0  0  0  0  0
  1  2  2  0  0  0  0
  1  5  1  0  0  0  0
  1 25  1  0  0  0  0
  2  3  1  0  0  0  0
  2 26  1  0  0  0  0
  3  4  1  0  0  0  0
  3  7  1  0  0  0  0
  4  5  1  0  0  0  0
  4  6  2  0  0  0  0
  7  8  1  0  0  0  0
  7 27  1  0  0  0  0
  8  9  1  0  0  0  0
  8 28  1  0  0  0  0
  8 29  1  0  0  0  0
  9 10  2  0  0  0  0
  9 14  1  0  0  0  0
 10 11  1  0  0  0  0
 10 15  1  0  0  0  0
 11 12  2  0  0  0  0
 11 30  1  0  0  0  0
 12 13  1  0  0  0  0
 12 31  1  0  0  0  0
 13 14  2  0  0  0  0
 13 32  1  0  0  0  0
 14 33  1  0  0  0  0
 15 16  3  0  0  0  0
 16 17  1  0  0  0  0
 17 18  2  0  0  0  0
 17 22  1  0  0  0  0
 18 19  1  0  0  0  0
 18 34  1  0  0  0  0
 19 20  2  0  0  0  0
 19 23  1  0  0  0  0
 20 21  1  0  0  0  0
 21 22  2  0  0  0  0
 21 24  1  0  0  0  0
 23 35  1  0  0  0  0
 23 36  1  0  0  0  0
 23 37  1  0  0  0  0
 24 38  1  0  0  0  0
 24 39  1  0  0  0  0
M  CHG  1   3   1
M  END
$$$$
