3T10_ACP_A_301
 OpenBabel03301717233D

 45 47  0  0  1  0  0  0  0  0999 V2000
    9.4277   -3.5072   23.2770 P   0  0  0  0  0  0  0  0  0  0  0  0
    9.6472   -2.6229   24.5272 O   0  0  0  0  0  0  0  0  0  0  0  0
    9.4310   -4.9955   23.6696 O   0  0  0  0  0  0  0  0  0  0  0  0
    8.2377   -3.0519   22.4617 O   0  0  0  0  0  0  0  0  0  0  0  0
   11.2560   -3.1221   20.4758 P   0  0  0  0  0  0  0  0  0  0  0  0
   12.7946   -3.2729   20.2907 O   0  0  0  0  0  0  0  0  0  0  0  0
   10.6937   -1.8499   19.8528 O   0  0  0  0  0  0  0  0  0  0  0  0
   10.9839   -3.2526   22.2850 C   0  0  0  0  0  0  0  0  0  0  0  0
    9.5619   -4.9164   18.8305 P   0  0  0  0  0  0  0  0  0  0  0  0
    8.2058   -4.2459   18.8189 O   0  0  0  0  0  0  0  0  0  0  0  0
    9.6051   -6.4407   18.6758 O   0  0  0  0  0  0  0  0  0  0  0  0
   10.6060   -4.4582   19.9369 O   0  0  0  0  0  0  0  0  0  0  0  0
   10.2901   -4.3742   17.4676 O   0  0  0  0  0  0  0  0  0  0  0  0
   11.5063   -4.9895   17.1440 C   0  0  0  0  0  0  0  0  0  0  0  0
   12.3195   -4.0758   16.2463 C   0  0  1  0  0  0  0  0  0  0  0  0
   11.7227   -4.0222   14.9095 O   0  0  0  0  0  0  0  0  0  0  0  0
   12.4820   -2.6158   16.6994 C   0  0  1  0  0  0  0  0  0  0  0  0
   13.5951   -2.3140   17.5272 O   0  0  0  0  0  0  0  0  0  0  0  0
   12.7476   -1.9142   15.3810 C   0  0  1  0  0  0  0  0  0  0  0  0
   14.1336   -2.0866   14.9527 O   0  0  0  0  0  0  0  0  0  0  0  0
   11.8609   -2.6740   14.4108 C   0  0  2  0  0  0  0  0  0  0  0  0
   10.5759   -2.0562   14.1413 N   0  3  0  0  0  0  0  0  0  0  0  0
    9.3293   -2.4823   14.4971 C   0  0  0  0  0  0  0  0  0  0  0  0
    8.3799   -1.7122   13.9835 N   0  0  0  0  0  0  0  0  0  0  0  0
    9.0596   -0.6906   13.3415 C   0  0  0  0  0  0  0  0  0  0  0  0
    8.6126    0.4555   12.6680 C   0  0  0  0  0  0  0  0  0  0  0  0
    7.2630    0.7763   12.4998 N   0  0  0  0  0  0  0  0  0  0  0  0
    9.5387    1.2939   12.1412 N   0  0  0  0  0  0  0  0  0  0  0  0
   10.8421    0.9558   12.2684 C   0  0  0  0  0  0  0  0  0  0  0  0
   11.3791   -0.1329   12.8586 N   0  0  0  0  0  0  0  0  0  0  0  0
   10.4246   -0.9023   13.4062 C   0  0  0  0  0  0  0  0  0  0  0  0
   11.6220   -4.1001   22.5888 H   0  0  0  0  0  0  0  0  0  0  0  0
   11.4728   -2.3744   22.7256 H   0  0  0  0  0  0  0  0  0  0  0  0
   11.2684   -5.9226   16.6076 H   0  0  0  0  0  0  0  0  0  0  0  0
   12.0778   -5.2573   18.0423 H   0  0  0  0  0  0  0  0  0  0  0  0
   13.2999   -4.5500   16.1204 H   0  0  0  0  0  0  0  0  0  0  0  0
   11.5594   -2.2321   17.1529 H   0  0  0  0  0  0  0  0  0  0  0  0
   14.2942   -2.9690   17.4222 H   0  0  0  0  0  0  0  0  0  0  0  0
   12.5735   -0.8370   15.4345 H   0  0  0  0  0  0  0  0  0  0  0  0
   14.3468   -3.0249   15.0905 H   0  0  0  0  0  0  0  0  0  0  0  0
   12.3513   -2.7691   13.4348 H   0  0  0  0  0  0  0  0  0  0  0  0
    9.1627   -3.3536   15.1268 H   0  0  0  0  0  0  0  0  0  0  0  0
    7.1334    1.7710   12.3856 H   0  0  0  0  0  0  0  0  0  0  0  0
    6.6941    0.3171   13.2103 H   0  0  0  0  0  0  0  0  0  0  0  0
   11.5465    1.6471   11.8248 H   0  0  0  0  0  0  0  0  0  0  0  0
  1  2  1  0  0  0  0
  1  3  1  0  0  0  0
  1  4  1  0  0  0  0
  1  8  1  0  0  0  0
  5  6  1  0  0  0  0
  5  7  1  0  0  0  0
  5  8  1  0  0  0  0
  5 12  1  0  0  0  0
  8 32  1  0  0  0  0
  8 33  1  0  0  0  0
  9 10  1  0  0  0  0
  9 11  1  0  0  0  0
  9 12  1  0  0  0  0
  9 13  1  0  0  0  0
 13 14  1  0  0  0  0
 14 15  1  0  0  0  0
 14 34  1  0  0  0  0
 14 35  1  0  0  0  0
 15 16  1  0  0  0  0
 15 17  1  0  0  0  0
 15 36  1  6  0  0  0
 16 21  1  0  0  0  0
 17 18  1  0  0  0  0
 17 19  1  0  0  0  0
 17 37  1  1  0  0  0
 18 38  1  0  0  0  0
 19 20  1  0  0  0  0
 19 21  1  0  0  0  0
 19 39  1  1  0  0  0
 20 40  1  0  0  0  0
 21 22  1  0  0  0  0
 21 41  1  6  0  0  0
 22 23  2  0  0  0  0
 22 31  1  0  0  0  0
 23 24  1  0  0  0  0
 23 42  1  0  0  0  0
 24 25  1  0  0  0  0
 25 26  2  0  0  0  0
 25 31  1  0  0  0  0
 26 27  1  0  0  0  0
 26 28  1  0  0  0  0
 27 43  1  0  0  0  0
 27 44  1  0  0  0  0
 28 29  2  0  0  0  0
 29 30  1  0  0  0  0
 29 45  1  0  0  0  0
 30 31  2  0  0  0  0
M  CHG  1  22   1
M  END
$$$$
