2YEF_ANP_A_1228
 OpenBabel03301717103D

 44 46  0  0  1  0  0  0  0  0999 V2000
   -1.3529   -0.2032    5.8048 P   0  0  0  0  0  0  0  0  0  0  0  0
   -0.8998   -0.2456    7.2331 O   0  0  0  0  0  0  0  0  0  0  0  0
   -1.9213    1.1471    5.3693 O   0  0  0  0  0  0  0  0  0  0  0  0
   -2.2662   -1.3620    5.4002 O   0  0  0  0  0  0  0  0  0  0  0  0
    1.5608   -0.5124    5.3189 P   0  0  0  0  0  0  0  0  0  0  0  0
    1.8037   -1.6944    6.2277 O   0  0  0  0  0  0  0  0  0  0  0  0
    2.3829   -0.5372    4.0199 O   0  0  0  0  0  0  0  0  0  0  0  0
   -0.0288   -0.3663    4.7178 N   0  0  0  0  0  0  0  0  0  0  0  0
    2.3966    1.2732    7.4417 P   0  0  0  0  0  0  0  0  0  0  0  0
    2.5304    2.7958    7.5783 O   0  0  0  0  0  0  0  0  0  0  0  0
    1.8310    0.5134    8.6088 O   0  0  0  0  0  0  0  0  0  0  0  0
    1.8892    0.9105    5.9735 O   0  0  0  0  0  0  0  0  0  0  0  0
    3.9583    0.7655    7.3785 O   0  0  0  0  0  0  0  0  0  0  0  0
    4.8562    1.4248    6.5182 C   0  0  0  0  0  0  0  0  0  0  0  0
    5.9697    0.4548    6.1208 C   0  0  1  0  0  0  0  0  0  0  0  0
    6.9506    0.3325    7.2007 O   0  0  0  0  0  0  0  0  0  0  0  0
    5.5468   -0.9705    5.7626 C   0  0  1  0  0  0  0  0  0  0  0  0
    5.1831   -1.1586    4.4097 O   0  0  0  0  0  0  0  0  0  0  0  0
    6.8168   -1.7623    6.0379 C   0  0  1  0  0  0  0  0  0  0  0  0
    7.7618   -1.6683    4.9260 O   0  0  0  0  0  0  0  0  0  0  0  0
    7.4068   -1.0349    7.2357 C   0  0  2  0  0  0  0  0  0  0  0  0
    7.1537   -1.6606    8.5239 N   0  3  0  0  0  0  0  0  0  0  0  0
    6.3364   -1.1901    9.5264 C   0  0  0  0  0  0  0  0  0  0  0  0
    6.3543   -1.9873   10.5816 N   0  0  0  0  0  0  0  0  0  0  0  0
    7.1905   -3.0123   10.2233 C   0  0  0  0  0  0  0  0  0  0  0  0
    7.5909   -4.1832   10.8946 C   0  0  0  0  0  0  0  0  0  0  0  0
    7.1570   -4.4876   12.1987 N   0  0  0  0  0  0  0  0  0  0  0  0
    8.4640   -5.0077   10.3248 N   0  0  0  0  0  0  0  0  0  0  0  0
    8.9347   -4.6698    9.0714 C   0  0  0  0  0  0  0  0  0  0  0  0
    8.6505   -3.5513    8.3584 N   0  0  0  0  0  0  0  0  0  0  0  0
    7.7419   -2.8083    8.9731 C   0  0  0  0  0  0  0  0  0  0  0  0
   -0.0753    0.4622    4.1442 H   0  0  0  0  0  0  0  0  0  0  0  0
    5.2929    2.2614    7.0726 H   0  0  0  0  0  0  0  0  0  0  0  0
    4.3560    1.8134    5.6284 H   0  0  0  0  0  0  0  0  0  0  0  0
    6.5133    0.9035    5.2835 H   0  0  0  0  0  0  0  0  0  0  0  0
    4.7373   -1.3108    6.4176 H   0  0  0  0  0  0  0  0  0  0  0  0
    5.8665   -0.8613    3.8043 H   0  0  0  0  0  0  0  0  0  0  0  0
    6.6367   -2.8292    6.1923 H   0  0  0  0  0  0  0  0  0  0  0  0
    7.9397   -0.7240    4.7813 H   0  0  0  0  0  0  0  0  0  0  0  0
    8.4978   -0.9794    7.1302 H   0  0  0  0  0  0  0  0  0  0  0  0
    5.7518   -0.2737    9.4364 H   0  0  0  0  0  0  0  0  0  0  0  0
    7.3597   -5.3953   12.5698 H   0  0  0  0  0  0  0  0  0  0  0  0
    6.4151   -3.8976   12.5632 H   0  0  0  0  0  0  0  0  0  0  0  0
    9.6573   -5.3385    8.6477 H   0  0  0  0  0  0  0  0  0  0  0  0
  1  2  1  0  0  0  0
  1  3  1  0  0  0  0
  1  4  1  0  0  0  0
  1  8  1  0  0  0  0
  5  6  1  0  0  0  0
  5  7  1  0  0  0  0
  5  8  1  0  0  0  0
  5 12  1  0  0  0  0
  8 32  1  0  0  0  0
  9 10  1  0  0  0  0
  9 11  1  0  0  0  0
  9 12  1  0  0  0  0
  9 13  1  0  0  0  0
 13 14  1  0  0  0  0
 14 15  1  0  0  0  0
 14 33  1  0  0  0  0
 14 34  1  0  0  0  0
 15 16  1  0  0  0  0
 15 17  1  0  0  0  0
 15 35  1  6  0  0  0
 16 21  1  0  0  0  0
 17 18  1  0  0  0  0
 17 19  1  0  0  0  0
 17 36  1  1  0  0  0
 18 37  1  0  0  0  0
 19 20  1  0  0  0  0
 19 21  1  0  0  0  0
 19 38  1  1  0  0  0
 20 39  1  0  0  0  0
 21 22  1  0  0  0  0
 21 40  1  6  0  0  0
 22 23  2  0  0  0  0
 22 31  1  0  0  0  0
 23 24  1  0  0  0  0
 23 41  1  0  0  0  0
 24 25  1  0  0  0  0
 25 26  2  0  0  0  0
 25 31  1  0  0  0  0
 26 27  1  0  0  0  0
 26 28  1  0  0  0  0
 27 42  1  0  0  0  0
 27 43  1  0  0  0  0
 28 29  2  0  0  0  0
 29 30  1  0  0  0  0
 29 44  1  0  0  0  0
 30 31  2  0  0  0  0
M  CHG  1  22   1
M  END
$$$$
