3T0Z_ATP_A_301
 OpenBabel03301717233D

 43 45  0  0  1  0  0  0  0  0999 V2000
   11.1962   -6.1489   21.7777 P   0  0  0  0  0  0  0  0  0  0  0  0
   11.3387   -5.1382   22.9242 O   0  0  0  0  0  0  0  0  0  0  0  0
   11.3891   -7.5836   22.2909 O   0  0  0  0  0  0  0  0  0  0  0  0
    9.9138   -5.9665   20.9880 O   0  0  0  0  0  0  0  0  0  0  0  0
   12.6398   -5.4755   19.2608 P   0  0  0  0  0  0  0  0  0  0  0  0
   14.1569   -5.5125   19.0068 O   0  0  0  0  0  0  0  0  0  0  0  0
   11.9910   -4.1603   18.8511 O   0  0  0  0  0  0  0  0  0  0  0  0
   12.4523   -5.8592   20.8083 O   0  0  0  0  0  0  0  0  0  0  0  0
   10.8535   -7.0445   17.4715 P   0  0  0  0  0  0  0  0  0  0  0  0
    9.5754   -6.2509   17.5835 O   0  0  0  0  0  0  0  0  0  0  0  0
   10.7577   -8.5493   17.2034 O   0  0  0  0  0  0  0  0  0  0  0  0
   12.0318   -6.7505   18.4995 O   0  0  0  0  0  0  0  0  0  0  0  0
   11.5135   -6.4709   16.0855 O   0  0  0  0  0  0  0  0  0  0  0  0
   12.5950   -7.1850   15.5423 C   0  0  0  0  0  0  0  0  0  0  0  0
   13.4666   -6.2096   14.7494 C   0  0  1  0  0  0  0  0  0  0  0  0
   12.8701   -5.9120   13.4539 O   0  0  0  0  0  0  0  0  0  0  0  0
   13.7168   -4.8691   15.4456 C   0  0  1  0  0  0  0  0  0  0  0  0
   14.8984   -4.8759   16.2276 O   0  0  0  0  0  0  0  0  0  0  0  0
   13.8780   -3.8914   14.2963 C   0  0  1  0  0  0  0  0  0  0  0  0
   15.2581   -3.7961   13.8563 O   0  0  0  0  0  0  0  0  0  0  0  0
   13.0538   -4.5106   13.1728 C   0  0  2  0  0  0  0  0  0  0  0  0
   11.7870   -3.8372   12.9582 N   0  3  0  0  0  0  0  0  0  0  0  0
   10.5547   -4.2360   13.3730 C   0  0  0  0  0  0  0  0  0  0  0  0
    9.6130   -3.3774   13.0188 N   0  0  0  0  0  0  0  0  0  0  0  0
   10.2771   -2.3395   12.4359 C   0  0  0  0  0  0  0  0  0  0  0  0
    9.8397   -1.1086   11.8982 C   0  0  0  0  0  0  0  0  0  0  0  0
    8.4956   -0.7486   11.8596 N   0  0  0  0  0  0  0  0  0  0  0  0
   10.7403   -0.2597   11.3647 N   0  0  0  0  0  0  0  0  0  0  0  0
   12.0418   -0.6593   11.3423 C   0  0  0  0  0  0  0  0  0  0  0  0
   12.5809   -1.8369   11.8016 N   0  0  0  0  0  0  0  0  0  0  0  0
   11.6485   -2.5969   12.3405 C   0  0  0  0  0  0  0  0  0  0  0  0
   12.1761   -7.9463   14.8729 H   0  0  0  0  0  0  0  0  0  0  0  0
   13.1823   -7.6859   16.3184 H   0  0  0  0  0  0  0  0  0  0  0  0
   14.4146   -6.7169   14.5370 H   0  0  0  0  0  0  0  0  0  0  0  0
   12.8672   -4.5666   16.0646 H   0  0  0  0  0  0  0  0  0  0  0  0
   15.6813   -5.0020   15.6896 H   0  0  0  0  0  0  0  0  0  0  0  0
   13.5560   -2.8817   14.5711 H   0  0  0  0  0  0  0  0  0  0  0  0
   15.5679   -4.7076   13.7282 H   0  0  0  0  0  0  0  0  0  0  0  0
   13.5867   -4.4631   12.2178 H   0  0  0  0  0  0  0  0  0  0  0  0
   10.4001   -5.1559   13.9402 H   0  0  0  0  0  0  0  0  0  0  0  0
    8.3003    0.2239   11.6675 H   0  0  0  0  0  0  0  0  0  0  0  0
    7.8930   -1.2772   12.4863 H   0  0  0  0  0  0  0  0  0  0  0  0
   12.7387    0.0395   10.9038 H   0  0  0  0  0  0  0  0  0  0  0  0
  1  2  1  0  0  0  0
  1  3  1  0  0  0  0
  1  4  1  0  0  0  0
  1  8  1  0  0  0  0
  5  6  1  0  0  0  0
  5  7  1  0  0  0  0
  5  8  1  0  0  0  0
  5 12  1  0  0  0  0
  9 10  1  0  0  0  0
  9 11  1  0  0  0  0
  9 12  1  0  0  0  0
  9 13  1  0  0  0  0
 13 14  1  0  0  0  0
 14 15  1  0  0  0  0
 14 32  1  0  0  0  0
 14 33  1  0  0  0  0
 15 16  1  0  0  0  0
 15 17  1  0  0  0  0
 15 34  1  6  0  0  0
 16 21  1  0  0  0  0
 17 18  1  0  0  0  0
 17 19  1  0  0  0  0
 17 35  1  1  0  0  0
 18 36  1  0  0  0  0
 19 20  1  0  0  0  0
 19 21  1  0  0  0  0
 19 37  1  1  0  0  0
 20 38  1  0  0  0  0
 21 22  1  0  0  0  0
 21 39  1  6  0  0  0
 22 23  2  0  0  0  0
 22 31  1  0  0  0  0
 23 24  1  0  0  0  0
 23 40  1  0  0  0  0
 24 25  1  0  0  0  0
 25 26  2  0  0  0  0
 25 31  1  0  0  0  0
 26 27  1  0  0  0  0
 26 28  1  0  0  0  0
 27 41  1  0  0  0  0
 27 42  1  0  0  0  0
 28 29  2  0  0  0  0
 29 30  1  0  0  0  0
 29 43  1  0  0  0  0
 30 31  2  0  0  0  0
M  CHG  1  22   1
M  END
$$$$
