2XHT_C0Y_A_1224
 OpenBabel03301717063D

 40 41  0  0  0  0  0  0  0  0999 V2000
    7.0021   -1.1255   10.0134 C   0  0  0  0  0  0  0  0  0  0  0  0
    6.3518   -1.6010   11.3120 C   0  0  0  0  0  0  0  0  0  0  0  0
    6.8349   -0.6737   12.4260 C   0  0  0  0  0  0  0  0  0  0  0  0
    4.8420   -1.4378   11.1456 C   0  0  0  0  0  0  0  0  0  0  0  0
    6.7174   -3.0469   11.6259 C   0  0  0  0  0  0  0  0  0  0  0  0
    7.6682   -3.6684   10.7815 C   0  0  0  0  0  0  0  0  0  0  0  0
    8.0999   -4.9670   10.9837 C   0  0  0  0  0  0  0  0  0  0  0  0
    7.5867   -5.6951   12.0514 C   0  0  0  0  0  0  0  0  0  0  0  0
    6.6407   -5.1138   12.9010 C   0  0  0  0  0  0  0  0  0  0  0  0
    6.2111   -3.8046   12.6951 C   0  0  0  0  0  0  0  0  0  0  0  0
    5.2854   -3.2572   13.5535 O   0  0  0  0  0  0  0  0  0  0  0  0
    9.1313   -5.5219   10.0790 C   0  0  0  0  0  0  0  0  0  0  0  0
   10.1741   -5.9391   10.6092 O   0  0  0  0  0  0  0  0  0  0  0  0
    8.9075   -5.5187    8.7151 N   0  0  0  0  0  0  0  0  0  0  0  0
    9.9415   -5.9750    7.7895 C   0  0  0  0  0  0  0  0  0  0  0  0
    9.4835   -7.2430    7.0727 C   0  0  0  0  0  0  0  0  0  0  0  0
    8.2095   -7.0448    6.4349 O   0  0  0  0  0  0  0  0  0  0  0  0
    7.2138   -6.7023    7.4126 C   0  0  0  0  0  0  0  0  0  0  0  0
    7.5775   -5.4108    8.1409 C   0  0  0  0  0  0  0  0  0  0  0  0
    6.7539   -0.0870    9.7774 H   0  0  0  0  0  0  0  0  0  0  0  0
    6.6849   -1.7467    9.1588 H   0  0  0  0  0  0  0  0  0  0  0  0
    8.1054   -1.1726   10.0800 H   0  0  0  0  0  0  0  0  0  0  0  0
    6.5746    0.3684   12.2011 H   0  0  0  0  0  0  0  0  0  0  0  0
    7.9226   -0.7365   12.5379 H   0  0  0  0  0  0  0  0  0  0  0  0
    6.3725   -0.9394   13.3769 H   0  0  0  0  0  0  0  0  0  0  0  0
    4.5900   -0.3950   10.9233 H   0  0  0  0  0  0  0  0  0  0  0  0
    4.3216   -1.7155   12.0598 H   0  0  0  0  0  0  0  0  0  0  0  0
    4.4755   -2.0666   10.3297 H   0  0  0  0  0  0  0  0  0  0  0  0
    8.0920   -3.1383    9.9397 H   0  0  0  0  0  0  0  0  0  0  0  0
    7.9220   -6.7053   12.2099 H   0  0  0  0  0  0  0  0  0  0  0  0
    6.2605   -5.7001   13.7289 H   0  0  0  0  0  0  0  0  0  0  0  0
    5.0080   -3.8895   14.2471 H   0  0  0  0  0  0  0  0  0  0  0  0
   10.8833   -6.1712    8.3074 H   0  0  0  0  0  0  0  0  0  0  0  0
   10.1029   -5.1790    7.0527 H   0  0  0  0  0  0  0  0  0  0  0  0
    9.3972   -8.0632    7.7945 H   0  0  0  0  0  0  0  0  0  0  0  0
   10.2157   -7.5208    6.3077 H   0  0  0  0  0  0  0  0  0  0  0  0
    7.1268   -7.5203    8.1353 H   0  0  0  0  0  0  0  0  0  0  0  0
    6.2560   -6.5709    6.9055 H   0  0  0  0  0  0  0  0  0  0  0  0
    7.5971   -4.5691    7.4362 H   0  0  0  0  0  0  0  0  0  0  0  0
    6.8293   -5.2219    8.9030 H   0  0  0  0  0  0  0  0  0  0  0  0
  1  2  1  0  0  0  0
  1 20  1  0  0  0  0
  1 21  1  0  0  0  0
  1 22  1  0  0  0  0
  2  3  1  0  0  0  0
  2  4  1  0  0  0  0
  2  5  1  0  0  0  0
  3 23  1  0  0  0  0
  3 24  1  0  0  0  0
  3 25  1  0  0  0  0
  4 26  1  0  0  0  0
  4 27  1  0  0  0  0
  4 28  1  0  0  0  0
  5  6  2  0  0  0  0
  5 10  1  0  0  0  0
  6  7  1  0  0  0  0
  6 29  1  0  0  0  0
  7  8  2  0  0  0  0
  7 12  1  0  0  0  0
  8  9  1  0  0  0  0
  8 30  1  0  0  0  0
  9 10  2  0  0  0  0
  9 31  1  0  0  0  0
 10 11  1  0  0  0  0
 11 32  1  0  0  0  0
 12 13  2  0  0  0  0
 12 14  1  0  0  0  0
 14 15  1  0  0  0  0
 14 19  1  0  0  0  0
 15 16  1  0  0  0  0
 15 33  1  0  0  0  0
 15 34  1  0  0  0  0
 16 17  1  0  0  0  0
 16 35  1  0  0  0  0
 16 36  1  0  0  0  0
 17 18  1  0  0  0  0
 18 19  1  0  0  0  0
 18 37  1  0  0  0  0
 18 38  1  0  0  0  0
 19 39  1  0  0  0  0
 19 40  1  0  0  0  0
M  END
$$$$
