3BMY_CXZ_A_1
 OpenBabel03301717153D

 48 51  0  0  0  0  0  0  0  0999 V2000
   -0.4868    4.5362   21.9075 C   0  0  0  0  0  0  0  0  0  0  0  0
    0.4972    5.3111   22.5777 C   0  0  0  0  0  0  0  0  0  0  0  0
    1.8263    5.1042   22.1720 C   0  0  0  0  0  0  0  0  0  0  0  0
    2.1897    4.2172   21.1992 C   0  0  0  0  0  0  0  0  0  0  0  0
    1.1908    3.4613   20.5966 C   0  0  0  0  0  0  0  0  0  0  0  0
   -0.1529    3.6128   20.9173 C   0  0  0  0  0  0  0  0  0  0  0  0
   -1.1108    2.9052   20.1939 N   0  0  0  0  0  0  0  0  0  0  0  0
   -0.8357    1.5323   19.7302 C   0  0  0  0  0  0  0  0  0  0  0  0
   -1.4501    1.3111   18.3285 C   0  0  0  0  0  0  0  0  0  0  0  0
   -0.6418    1.9806   17.2139 N   0  3  0  0  0  0  0  0  0  0  0  0
   -1.3715    1.9186   15.8748 C   0  0  0  0  0  0  0  0  0  0  0  0
   -0.4990    2.5637   14.7901 C   0  0  0  0  0  0  0  0  0  0  0  0
   -0.1745    3.9209   15.1109 O   0  0  0  0  0  0  0  0  0  0  0  0
    0.5625    3.9948   16.3268 C   0  0  0  0  0  0  0  0  0  0  0  0
   -0.2612    3.4344   17.4785 C   0  0  0  0  0  0  0  0  0  0  0  0
    3.5896    4.3454   21.0533 C   0  0  0  0  0  0  0  0  0  0  0  0
    4.0549    5.2389   21.9361 N   0  0  0  0  0  0  0  0  0  0  0  0
    2.9440    5.7220   22.6289 O   0  0  0  0  0  0  0  0  0  0  0  0
    4.4315    3.6140   20.0801 C   0  0  0  0  0  0  0  0  0  0  0  0
    4.1078    2.2806   19.7571 C   0  0  0  0  0  0  0  0  0  0  0  0
    4.8085    1.5799   18.7761 C   0  0  0  0  0  0  0  0  0  0  0  0
    5.8803    2.1863   18.1294 C   0  0  0  0  0  0  0  0  0  0  0  0
    6.2387    3.4967   18.4443 C   0  0  0  0  0  0  0  0  0  0  0  0
    5.5009    4.2110   19.3989 C   0  0  0  0  0  0  0  0  0  0  0  0
    5.7923    5.5256   19.6236 O   0  0  0  0  0  0  0  0  0  0  0  0
    6.5658    1.4962   17.1700 O   0  0  0  0  0  0  0  0  0  0  0  0
    4.2804   -0.0155   18.3800 Cl  0  0  0  0  0  0  0  0  0  0  0  0
   -1.5226    4.6878   22.2056 H   0  0  0  0  0  0  0  0  0  0  0  0
    0.2512    6.0190   23.3573 H   0  0  0  0  0  0  0  0  0  0  0  0
    1.5088    2.7966   19.8037 H   0  0  0  0  0  0  0  0  0  0  0  0
   -2.0834    3.1461   20.3796 H   0  0  0  0  0  0  0  0  0  0  0  0
   -1.2447    0.8137   20.4487 H   0  0  0  0  0  0  0  0  0  0  0  0
    0.2309    1.2966   19.6552 H   0  0  0  0  0  0  0  0  0  0  0  0
   -2.4692    1.6990   18.2850 H   0  0  0  0  0  0  0  0  0  0  0  0
   -1.4481    0.2397   18.0942 H   0  0  0  0  0  0  0  0  0  0  0  0
    0.2353    1.4528   17.1134 H   0  0  0  0  0  0  0  0  0  0  0  0
   -2.3108    2.4670   16.0105 H   0  0  0  0  0  0  0  0  0  0  0  0
   -1.5695    0.8664   15.6587 H   0  0  0  0  0  0  0  0  0  0  0  0
   -1.0355    2.5733   13.8384 H   0  0  0  0  0  0  0  0  0  0  0  0
    0.4309    1.9998   14.6540 H   0  0  0  0  0  0  0  0  0  0  0  0
    0.8160    5.0394   16.5338 H   0  0  0  0  0  0  0  0  0  0  0  0
    1.5080    3.4443   16.2235 H   0  0  0  0  0  0  0  0  0  0  0  0
    0.3924    3.4478   18.3255 H   0  0  0  0  0  0  0  0  0  0  0  0
   -1.1832    3.9932   17.6578 H   0  0  0  0  0  0  0  0  0  0  0  0
    3.3000    1.7648   20.2677 H   0  0  0  0  0  0  0  0  0  0  0  0
    7.0708    3.9702   17.9328 H   0  0  0  0  0  0  0  0  0  0  0  0
    6.6194    5.7821   19.1856 H   0  0  0  0  0  0  0  0  0  0  0  0
    7.3334    2.0120   16.8705 H   0  0  0  0  0  0  0  0  0  0  0  0
  1  2  2  0  0  0  0
  1  6  1  0  0  0  0
  1 28  1  0  0  0  0
  2  3  1  0  0  0  0
  2 29  1  0  0  0  0
  3  4  2  0  0  0  0
  3 18  1  0  0  0  0
  4  5  1  0  0  0  0
  4 16  1  0  0  0  0
  5  6  2  0  0  0  0
  5 30  1  0  0  0  0
  6  7  1  0  0  0  0
  7  8  1  0  0  0  0
  7 31  1  0  0  0  0
  8  9  1  0  0  0  0
  8 32  1  0  0  0  0
  8 33  1  0  0  0  0
  9 10  1  0  0  0  0
  9 34  1  0  0  0  0
  9 35  1  0  0  0  0
 10 11  1  0  0  0  0
 10 15  1  0  0  0  0
 10 36  1  0  0  0  0
 11 12  1  0  0  0  0
 11 37  1  0  0  0  0
 11 38  1  0  0  0  0
 12 13  1  0  0  0  0
 12 39  1  0  0  0  0
 12 40  1  0  0  0  0
 13 14  1  0  0  0  0
 14 15  1  0  0  0  0
 14 41  1  0  0  0  0
 14 42  1  0  0  0  0
 15 43  1  0  0  0  0
 15 44  1  0  0  0  0
 16 17  2  0  0  0  0
 16 19  1  0  0  0  0
 17 18  1  0  0  0  0
 19 20  2  0  0  0  0
 19 24  1  0  0  0  0
 20 21  1  0  0  0  0
 20 45  1  0  0  0  0
 21 22  2  0  0  0  0
 21 27  1  0  0  0  0
 22 23  1  0  0  0  0
 22 26  1  0  0  0  0
 23 24  2  0  0  0  0
 23 46  1  0  0  0  0
 24 25  1  0  0  0  0
 25 47  1  0  0  0  0
 26 48  1  0  0  0  0
M  CHG  1  10   1
M  END
$$$$
