4NH7_HIE_A_301
 OpenBabel03301717333D

 60 63  0  0  1  0  0  0  0  0999 V2000
   17.0572    7.7489   14.3498 C   0  0  1  0  0  0  0  0  0  0  0  0
   18.0437    9.9896   15.0441 C   0  0  0  0  0  0  0  0  0  0  0  0
   18.7655   11.1568   14.6750 C   0  0  0  0  0  0  0  0  0  0  0  0
   20.3165   12.1328   13.0609 N   0  0  0  0  0  0  0  0  0  0  0  0
   18.6158   12.0453   16.9293 C   0  0  0  0  0  0  0  0  0  0  0  0
   18.5608   10.9342   12.3066 O   0  0  0  0  0  0  0  0  0  0  0  0
   17.7802    8.9908   14.1212 N   0  0  0  0  0  0  0  0  0  0  0  0
   17.3090   10.8554   18.5833 N   0  3  0  0  0  0  0  0  0  0  0  0
   17.8841   10.9190   17.2990 C   0  0  0  0  0  0  0  0  0  0  0  0
   17.6433    9.8813   16.3846 C   0  0  0  0  0  0  0  0  0  0  0  0
   17.3581    9.7072   19.2896 N   0  0  0  0  0  0  0  0  0  0  0  0
   16.8276    5.3915   13.4880 C   0  0  0  0  0  0  0  0  0  0  0  0
   15.3217    5.5650   13.3411 C   0  0  2  0  0  0  0  0  0  0  0  0
   14.7815    6.6154   14.3077 C   0  0  0  0  0  0  0  0  0  0  0  0
   15.5406    7.9421   14.2192 C   0  0  0  0  0  0  0  0  0  0  0  0
   16.6960    9.9598   20.4414 C   0  0  0  0  0  0  0  0  0  0  0  0
   16.1717   11.2772   20.4278 C   0  0  0  0  0  0  0  0  0  0  0  0
   16.5866   11.8231   19.2352 C   0  0  0  0  0  0  0  0  0  0  0  0
   15.0249   13.4717   20.9609 C   0  0  0  0  0  0  0  0  0  0  0  0
   13.6654   13.0091   18.8840 C   0  0  0  0  0  0  0  0  0  0  0  0
   19.0583   12.1602   15.6205 C   0  0  0  0  0  0  0  0  0  0  0  0
   17.0860    7.7137   21.1382 F   0  0  0  0  0  0  0  0  0  0  0  0
   14.9159   11.5202   22.3929 O   0  0  0  0  0  0  0  0  0  0  0  0
   17.1526    9.2597   22.6710 F   0  0  0  0  0  0  0  0  0  0  0  0
   15.2382    8.6562   21.7908 F   0  0  0  0  0  0  0  0  0  0  0  0
   14.6818    4.3167   13.5842 O   0  0  0  0  0  0  0  0  0  0  0  0
   19.1849   11.3861   13.2594 C   0  0  0  0  0  0  0  0  0  0  0  0
   17.5523    6.7182   13.3282 C   0  0  0  0  0  0  0  0  0  0  0  0
   16.1999   13.1696   18.7163 C   0  0  0  0  0  0  0  0  0  0  0  0
   14.9264   13.6993   19.4315 C   0  0  0  0  0  0  0  0  0  0  0  0
   15.3262   12.0170   21.3430 C   0  0  0  0  0  0  0  0  0  0  0  0
   14.7963   15.2054   19.1466 C   0  0  0  0  0  0  0  0  0  0  0  0
   16.5422    8.9087   21.5075 C   0  0  0  0  0  0  0  0  0  0  0  0
   17.2842    7.3581   15.3484 H   0  0  0  0  0  0  0  0  0  0  0  0
   20.6296   12.2724   12.1095 H   0  0  0  0  0  0  0  0  0  0  0  0
   20.9262   12.4277   13.8084 H   0  0  0  0  0  0  0  0  0  0  0  0
   18.8721   12.8172   17.6504 H   0  0  0  0  0  0  0  0  0  0  0  0
   18.0343    9.2141   13.1538 H   0  0  0  0  0  0  0  0  0  0  0  0
   17.0711    9.0192   16.7205 H   0  0  0  0  0  0  0  0  0  0  0  0
   17.1907    4.6727   12.7449 H   0  0  0  0  0  0  0  0  0  0  0  0
   17.0567    4.9591   14.4704 H   0  0  0  0  0  0  0  0  0  0  0  0
   15.0840    5.8638   12.3133 H   0  0  0  0  0  0  0  0  0  0  0  0
   14.8311    6.2267   15.3329 H   0  0  0  0  0  0  0  0  0  0  0  0
   13.7170    6.7793   14.1003 H   0  0  0  0  0  0  0  0  0  0  0  0
   15.3031    8.4289   13.2647 H   0  0  0  0  0  0  0  0  0  0  0  0
   15.1794    8.6080   15.0111 H   0  0  0  0  0  0  0  0  0  0  0  0
   14.0878   13.7726   21.4440 H   0  0  0  0  0  0  0  0  0  0  0  0
   15.8284   14.0940   21.3731 H   0  0  0  0  0  0  0  0  0  0  0  0
   13.6859   11.9305   19.0619 H   0  0  0  0  0  0  0  0  0  0  0  0
   13.5715   13.1699   17.8047 H   0  0  0  0  0  0  0  0  0  0  0  0
   12.7628   13.4085   19.3612 H   0  0  0  0  0  0  0  0  0  0  0  0
   19.6088   13.0525   15.3384 H   0  0  0  0  0  0  0  0  0  0  0  0
   14.9124    4.0261   14.4843 H   0  0  0  0  0  0  0  0  0  0  0  0
   18.6295    6.5634   13.4523 H   0  0  0  0  0  0  0  0  0  0  0  0
   17.3974    7.0942   12.3079 H   0  0  0  0  0  0  0  0  0  0  0  0
   16.0194   13.1352   17.6368 H   0  0  0  0  0  0  0  0  0  0  0  0
   17.0301   13.8597   18.9099 H   0  0  0  0  0  0  0  0  0  0  0  0
   13.9021   15.6243   19.6218 H   0  0  0  0  0  0  0  0  0  0  0  0
   14.7234   15.3935   18.0691 H   0  0  0  0  0  0  0  0  0  0  0  0
   15.6652   15.7545   19.5249 H   0  0  0  0  0  0  0  0  0  0  0  0
  1  7  1  0  0  0  0
  1 15  1  0  0  0  0
  1 28  1  0  0  0  0
  1 34  1  1  0  0  0
  2  3  2  0  0  0  0
  2  7  1  0  0  0  0
  2 10  1  0  0  0  0
  3 21  1  0  0  0  0
  3 27  1  0  0  0  0
  4 27  1  0  0  0  0
  4 35  1  0  0  0  0
  4 36  1  0  0  0  0
  5  9  1  0  0  0  0
  5 21  2  0  0  0  0
  5 37  1  0  0  0  0
  6 27  2  0  0  0  0
  7 38  1  0  0  0  0
  8  9  1  0  0  0  0
  8 11  1  0  0  0  0
  8 18  2  0  0  0  0
  9 10  2  0  0  0  0
 10 39  1  0  0  0  0
 11 16  1  0  0  0  0
 12 13  1  0  0  0  0
 12 28  1  0  0  0  0
 12 40  1  0  0  0  0
 12 41  1  0  0  0  0
 13 14  1  0  0  0  0
 13 26  1  0  0  0  0
 13 42  1  6  0  0  0
 14 15  1  0  0  0  0
 14 43  1  0  0  0  0
 14 44  1  0  0  0  0
 15 45  1  0  0  0  0
 15 46  1  0  0  0  0
 16 17  2  0  0  0  0
 16 33  1  0  0  0  0
 17 18  1  0  0  0  0
 17 31  1  0  0  0  0
 18 29  1  0  0  0  0
 19 30  1  0  0  0  0
 19 31  1  0  0  0  0
 19 47  1  0  0  0  0
 19 48  1  0  0  0  0
 20 30  1  0  0  0  0
 20 49  1  0  0  0  0
 20 50  1  0  0  0  0
 20 51  1  0  0  0  0
 21 52  1  0  0  0  0
 22 33  1  0  0  0  0
 23 31  2  0  0  0  0
 24 33  1  0  0  0  0
 25 33  1  0  0  0  0
 26 53  1  0  0  0  0
 28 54  1  0  0  0  0
 28 55  1  0  0  0  0
 29 30  1  0  0  0  0
 29 56  1  0  0  0  0
 29 57  1  0  0  0  0
 30 32  1  0  0  0  0
 32 58  1  0  0  0  0
 32 59  1  0  0  0  0
 32 60  1  0  0  0  0
M  CHG  1   8   1
M  END
$$$$
