4CWT_IK9_A_1225
 OpenBabel03301717283D

 46 50  0  0  0  0  0  0  0  0999 V2000
    3.8742   16.7304   26.2609 F   0  0  0  0  0  0  0  0  0  0  0  0
    4.4373   15.6456   25.6951 C   0  0  0  0  0  0  0  0  0  0  0  0
    3.6426   14.6387   25.2090 C   0  0  0  0  0  0  0  0  0  0  0  0
    4.2413   13.5225   24.6266 C   0  0  0  0  0  0  0  0  0  0  0  0
    5.6558   13.4311   24.5454 C   0  0  0  0  0  0  0  0  0  0  0  0
    6.4660   14.4723   25.0231 C   0  0  0  0  0  0  0  0  0  0  0  0
    7.8434   14.4438   24.8231 N   0  0  0  0  0  0  0  0  0  0  0  0
    8.7255   15.4038   25.4551 C   0  0  0  0  0  0  0  0  0  0  0  0
    8.8501   15.1686   26.9641 C   0  0  0  0  0  0  0  0  0  0  0  0
    9.8660   15.9932   27.5244 O   0  0  0  0  0  0  0  0  0  0  0  0
    5.8215   15.5839   25.5878 C   0  0  0  0  0  0  0  0  0  0  0  0
    6.1883   12.2109   23.9464 C   0  0  0  0  0  0  0  0  0  0  0  0
    7.4186   11.7787   23.7401 N   0  0  0  0  0  0  0  0  0  0  0  0
    7.2174   10.5669   23.1475 C   0  0  0  0  0  0  0  0  0  0  0  0
    8.2708    9.8516   22.7795 N   0  0  0  0  0  0  0  0  0  0  0  0
    5.9468   10.2078   22.9786 N   0  0  0  0  0  0  0  0  0  0  0  0
    5.3045   11.2626   23.5079 N   0  3  0  0  0  0  0  0  0  0  0  0
    3.9232   11.4285   23.6338 C   0  0  0  0  0  0  0  0  0  0  0  0
    3.3912   12.4991   24.1541 N   0  0  0  0  0  0  0  0  0  0  0  0
    3.0856   10.2447   23.2762 C   0  0  0  0  0  0  0  0  0  0  0  0
    3.1263    9.2383   24.4049 C   0  0  0  0  0  0  0  0  0  0  0  0
    3.6385    7.9505   24.1601 C   0  0  0  0  0  0  0  0  0  0  0  0
    3.7732    7.0282   25.1992 C   0  0  0  0  0  0  0  0  0  0  0  0
    3.3883    7.4149   26.4655 C   0  0  0  0  0  0  0  0  0  0  0  0
    2.8924    8.6705   26.7186 C   0  0  0  0  0  0  0  0  0  0  0  0
    2.7481    9.6037   25.7135 C   0  0  0  0  0  0  0  0  0  0  0  0
    3.4466    6.6457   27.5864 O   0  0  0  0  0  0  0  0  0  0  0  0
    2.8593    7.5366   28.5582 C   0  0  0  0  0  0  0  0  0  0  0  0
    2.5879    8.8531   28.0322 O   0  0  0  0  0  0  0  0  0  0  0  0
    2.5646   14.7115   25.2917 H   0  0  0  0  0  0  0  0  0  0  0  0
    8.2343   13.5260   24.5836 H   0  0  0  0  0  0  0  0  0  0  0  0
    8.3922   16.4281   25.2497 H   0  0  0  0  0  0  0  0  0  0  0  0
    9.7106   15.3366   24.9822 H   0  0  0  0  0  0  0  0  0  0  0  0
    9.0839   14.1214   27.1812 H   0  0  0  0  0  0  0  0  0  0  0  0
    7.9142   15.4055   27.4807 H   0  0  0  0  0  0  0  0  0  0  0  0
   10.7085   15.7292   27.1176 H   0  0  0  0  0  0  0  0  0  0  0  0
    6.3777   16.4359   25.9664 H   0  0  0  0  0  0  0  0  0  0  0  0
    8.1607    8.9448   22.3486 H   0  0  0  0  0  0  0  0  0  0  0  0
    9.2129   10.1911   22.9096 H   0  0  0  0  0  0  0  0  0  0  0  0
    3.4108    9.8156   22.3210 H   0  0  0  0  0  0  0  0  0  0  0  0
    2.0480   10.5776   23.1290 H   0  0  0  0  0  0  0  0  0  0  0  0
    3.9661    7.6788   23.1580 H   0  0  0  0  0  0  0  0  0  0  0  0
    4.1783    6.0424   25.0113 H   0  0  0  0  0  0  0  0  0  0  0  0
    2.3756   10.5982   25.9441 H   0  0  0  0  0  0  0  0  0  0  0  0
    3.5372    7.6246   29.4154 H   0  0  0  0  0  0  0  0  0  0  0  0
    1.9167    7.0996   28.9113 H   0  0  0  0  0  0  0  0  0  0  0  0
  1  2  1  0  0  0  0
  2  3  2  0  0  0  0
  2 11  1  0  0  0  0
  3  4  1  0  0  0  0
  3 30  1  0  0  0  0
  4  5  2  0  0  0  0
  4 19  1  0  0  0  0
  5  6  1  0  0  0  0
  5 12  1  0  0  0  0
  6  7  1  0  0  0  0
  6 11  2  0  0  0  0
  7  8  1  0  0  0  0
  7 31  1  0  0  0  0
  8  9  1  0  0  0  0
  8 32  1  0  0  0  0
  8 33  1  0  0  0  0
  9 10  1  0  0  0  0
  9 34  1  0  0  0  0
  9 35  1  0  0  0  0
 10 36  1  0  0  0  0
 11 37  1  0  0  0  0
 12 13  1  0  0  0  0
 12 17  2  0  0  0  0
 13 14  1  0  0  0  0
 14 15  1  0  0  0  0
 14 16  2  0  0  0  0
 15 38  1  0  0  0  0
 15 39  1  0  0  0  0
 16 17  1  0  0  0  0
 17 18  1  0  0  0  0
 18 19  2  0  0  0  0
 18 20  1  0  0  0  0
 20 21  1  0  0  0  0
 20 40  1  0  0  0  0
 20 41  1  0  0  0  0
 21 22  2  0  0  0  0
 21 26  1  0  0  0  0
 22 23  1  0  0  0  0
 22 42  1  0  0  0  0
 23 24  2  0  0  0  0
 23 43  1  0  0  0  0
 24 25  1  0  0  0  0
 24 27  1  0  0  0  0
 25 26  2  0  0  0  0
 25 29  1  0  0  0  0
 26 44  1  0  0  0  0
 27 28  1  0  0  0  0
 28 29  1  0  0  0  0
 28 45  1  0  0  0  0
 28 46  1  0  0  0  0
M  CHG  1  17   1
M  END
$$$$
