3OWD_MEY_A_1
 OpenBabel03301717203D

 52 56  0  0  0  0  0  0  0  0999 V2000
   -3.9018    8.1688   23.8525 C   0  0  0  0  0  0  0  0  0  0  0  0
   -3.9115    6.8210   24.1811 C   0  0  0  0  0  0  0  0  0  0  0  0
   -3.4945    7.1050   19.1300 C   0  0  0  0  0  0  0  0  0  0  0  0
   -3.8052    8.5534   22.5175 C   0  0  0  0  0  0  0  0  0  0  0  0
   -3.8345    5.8612   23.1754 C   0  0  0  0  0  0  0  0  0  0  0  0
   -3.5870    8.0233   20.1701 C   0  0  0  0  0  0  0  0  0  0  0  0
   -0.4836    5.6442   22.5697 C   0  0  0  0  0  0  0  0  0  0  0  0
   -0.1844    6.9748   22.8662 C   0  0  0  0  0  0  0  0  0  0  0  0
   -3.5170    5.7455   19.4119 C   0  0  0  0  0  0  0  0  0  0  0  0
    0.0365    5.9608   20.2020 C   0  0  0  0  0  0  0  0  0  0  0  0
   -0.6196   10.3625   23.3995 C   0  0  0  0  0  0  0  0  0  0  0  0
    1.7304   11.0822   24.7269 C   0  0  0  0  0  0  0  0  0  0  0  0
   -3.7113    7.5983   21.4989 C   0  0  0  0  0  0  0  0  0  0  0  0
   -3.7344    6.2151   21.8131 C   0  0  0  0  0  0  0  0  0  0  0  0
   -0.4250    5.1382   21.2411 C   0  0  0  0  0  0  0  0  0  0  0  0
    0.2318    7.7662   21.8207 C   0  0  0  0  0  0  0  0  0  0  0  0
    0.3634    7.2572   20.5282 C   0  0  0  0  0  0  0  0  0  0  0  0
    0.6186    9.9499   22.8957 C   0  0  0  0  0  0  0  0  0  0  0  0
    1.7923   10.3600   23.5353 C   0  0  0  0  0  0  0  0  0  0  0  0
    0.4908   11.4562   25.2422 C   0  0  0  0  0  0  0  0  0  0  0  0
   -3.6326    5.2972   20.7345 C   0  0  0  0  0  0  0  0  0  0  0  0
   -0.6815   11.1318   24.5591 C   0  0  0  0  0  0  0  0  0  0  0  0
    1.0717    9.4204   20.4783 C   0  0  0  0  0  0  0  0  0  0  0  0
   -0.8670    3.7256   20.9338 C   0  0  0  0  0  0  0  0  0  0  0  0
    0.8699    8.2612   19.7090 N   0  3  0  0  0  0  0  0  0  0  0  0
    0.6571    9.1003   21.7879 N   0  3  0  0  0  0  0  0  0  0  0  0
   -2.0601    3.3291   21.6955 N   0  0  0  0  0  0  0  0  0  0  0  0
    1.5359   10.4673   20.0719 O   0  0  0  0  0  0  0  0  0  0  0  0
   -4.5614    3.1840   21.9838 O   0  0  0  0  0  0  0  0  0  0  0  0
   -3.5429    2.8928   19.7043 O   0  0  0  0  0  0  0  0  0  0  0  0
    3.0311   10.0298   23.0615 O   0  0  0  0  0  0  0  0  0  0  0  0
    0.4699   12.1412   26.4266 O   0  0  0  0  0  0  0  0  0  0  0  0
   -3.5707    3.5355   20.9896 S   0  0  0  0  0  0  0  0  0  0  0  0
   -2.2140   11.6695   25.1377 Cl  0  0  0  0  0  0  0  0  0  0  0  0
   -3.9739    8.9204   24.6327 H   0  0  0  0  0  0  0  0  0  0  0  0
   -3.9856    6.5107   25.2190 H   0  0  0  0  0  0  0  0  0  0  0  0
   -3.4039    7.4436   18.1044 H   0  0  0  0  0  0  0  0  0  0  0  0
   -3.8017    9.6142   22.2771 H   0  0  0  0  0  0  0  0  0  0  0  0
   -3.8471    4.8217   23.4962 H   0  0  0  0  0  0  0  0  0  0  0  0
   -3.5671    9.0853   19.9316 H   0  0  0  0  0  0  0  0  0  0  0  0
   -0.8057    5.0091   23.3924 H   0  0  0  0  0  0  0  0  0  0  0  0
   -0.2740    7.3460   23.8804 H   0  0  0  0  0  0  0  0  0  0  0  0
   -3.4282    5.0342   18.5944 H   0  0  0  0  0  0  0  0  0  0  0  0
    0.1180    5.5978   19.1832 H   0  0  0  0  0  0  0  0  0  0  0  0
   -1.5276   10.1033   22.8691 H   0  0  0  0  0  0  0  0  0  0  0  0
    2.6436   11.3457   25.2519 H   0  0  0  0  0  0  0  0  0  0  0  0
   -0.0425    3.0480   21.1855 H   0  0  0  0  0  0  0  0  0  0  0  0
   -1.0477    3.6014   19.8587 H   0  0  0  0  0  0  0  0  0  0  0  0
    1.0755    8.2020   18.7250 H   0  0  0  0  0  0  0  0  0  0  0  0
   -2.0653    3.5778   22.6752 H   0  0  0  0  0  0  0  0  0  0  0  0
    2.9193    9.6253   22.1824 H   0  0  0  0  0  0  0  0  0  0  0  0
   -0.4603   12.3558   26.6319 H   0  0  0  0  0  0  0  0  0  0  0  0
  1  2  2  0  0  0  0
  1  4  1  0  0  0  0
  1 35  1  0  0  0  0
  2  5  1  0  0  0  0
  2 36  1  0  0  0  0
  3  6  2  0  0  0  0
  3  9  1  0  0  0  0
  3 37  1  0  0  0  0
  4 13  2  0  0  0  0
  4 38  1  0  0  0  0
  5 14  2  0  0  0  0
  5 39  1  0  0  0  0
  6 13  1  0  0  0  0
  6 40  1  0  0  0  0
  7  8  2  0  0  0  0
  7 15  1  0  0  0  0
  7 41  1  0  0  0  0
  8 16  1  0  0  0  0
  8 42  1  0  0  0  0
  9 21  2  0  0  0  0
  9 43  1  0  0  0  0
 10 15  2  0  0  0  0
 10 17  1  0  0  0  0
 10 44  1  0  0  0  0
 11 18  2  0  0  0  0
 11 22  1  0  0  0  0
 11 45  1  0  0  0  0
 12 19  2  0  0  0  0
 12 20  1  0  0  0  0
 12 46  1  0  0  0  0
 13 14  1  0  0  0  0
 14 21  1  0  0  0  0
 15 24  1  0  0  0  0
 16 17  2  0  0  0  0
 16 26  1  0  0  0  0
 17 25  1  0  0  0  0
 18 19  1  0  0  0  0
 18 26  1  0  0  0  0
 19 31  1  0  0  0  0
 20 22  2  0  0  0  0
 20 32  1  0  0  0  0
 21 33  1  0  0  0  0
 22 34  1  0  0  0  0
 23 25  1  0  0  0  0
 23 26  1  0  0  0  0
 23 28  2  0  0  0  0
 24 27  1  0  0  0  0
 24 47  1  0  0  0  0
 24 48  1  0  0  0  0
 25 49  1  0  0  0  0
 27 33  1  0  0  0  0
 27 50  1  0  0  0  0
 29 33  2  0  0  0  0
 30 33  2  0  0  0  0
 31 51  1  0  0  0  0
 32 52  1  0  0  0  0
M  CHG  2  25   1  26   1
M  END
$$$$
