2XDU_MT0_A_1228
 OpenBabel03301717063D

 19 20  0  0  0  0  0  0  0  0999 V2000
    7.3856   11.0704   23.4152 C   0  0  0  0  0  0  0  0  0  0  0  0
    6.1139   11.8317   23.6792 C   0  0  0  0  0  0  0  0  0  0  0  0
    4.9858   11.2821   23.1777 N   0  0  0  0  0  0  0  0  0  0  0  0
    3.7793   11.8962   23.3635 N   0  0  0  0  0  0  0  0  0  0  0  0
    3.7378   13.0605   24.0505 C   0  0  0  0  0  0  0  0  0  0  0  0
    2.1638   13.7489   24.2158 Cl  0  0  0  0  0  0  0  0  0  0  0  0
    4.8590   13.6708   24.5924 C   0  0  0  0  0  0  0  0  0  0  0  0
    4.8079   14.8690   25.3075 C   0  0  0  0  0  0  0  0  0  0  0  0
    5.9615   15.4344   25.8301 C   0  0  0  0  0  0  0  0  0  0  0  0
    7.1779   14.8151   25.6467 C   0  0  0  0  0  0  0  0  0  0  0  0
    7.2489   13.6249   24.9398 C   0  0  0  0  0  0  0  0  0  0  0  0
    6.0990   13.0269   24.3974 C   0  0  0  0  0  0  0  0  0  0  0  0
    7.1776   10.1669   22.8370 H   0  0  0  0  0  0  0  0  0  0  0  0
    7.8525   10.7741   24.3604 H   0  0  0  0  0  0  0  0  0  0  0  0
    8.0879   11.6889   22.8461 H   0  0  0  0  0  0  0  0  0  0  0  0
    3.8560   15.3835   25.4692 H   0  0  0  0  0  0  0  0  0  0  0  0
    5.8931   16.3698   26.3881 H   0  0  0  0  0  0  0  0  0  0  0  0
    8.0761   15.2652   26.0572 H   0  0  0  0  0  0  0  0  0  0  0  0
    8.2255   13.1526   24.8123 H   0  0  0  0  0  0  0  0  0  0  0  0
  1  2  1  0  0  0  0
  1 13  1  0  0  0  0
  1 14  1  0  0  0  0
  1 15  1  0  0  0  0
  2  3  2  0  0  0  0
  2 12  1  0  0  0  0
  3  4  1  0  0  0  0
  4  5  2  0  0  0  0
  5  6  1  0  0  0  0
  5  7  1  0  0  0  0
  7  8  2  0  0  0  0
  7 12  1  0  0  0  0
  8  9  1  0  0  0  0
  8 16  1  0  0  0  0
  9 10  2  0  0  0  0
  9 17  1  0  0  0  0
 10 11  1  0  0  0  0
 10 18  1  0  0  0  0
 11 12  2  0  0  0  0
 11 19  1  0  0  0  0
M  END
$$$$
