2XDS_MT0_A_1225
 OpenBabel03301717063D

 19 20  0  0  0  0  0  0  0  0999 V2000
    6.3853   11.3016   23.3728 C   0  0  0  0  0  0  0  0  0  0  0  0
    5.1714   12.1316   23.6723 C   0  0  0  0  0  0  0  0  0  0  0  0
    3.9999   11.6304   23.2269 N   0  0  0  0  0  0  0  0  0  0  0  0
    2.8337   12.3212   23.4342 N   0  0  0  0  0  0  0  0  0  0  0  0
    2.8822   13.4946   24.0858 C   0  0  0  0  0  0  0  0  0  0  0  0
    1.3486   14.2678   24.2610 Cl  0  0  0  0  0  0  0  0  0  0  0  0
    4.0518   14.0613   24.5678 C   0  0  0  0  0  0  0  0  0  0  0  0
    4.0892   15.2868   25.2478 C   0  0  0  0  0  0  0  0  0  0  0  0
    5.2822   15.8052   25.7279 C   0  0  0  0  0  0  0  0  0  0  0  0
    6.4635   15.1160   25.5132 C   0  0  0  0  0  0  0  0  0  0  0  0
    6.4449   13.9021   24.8350 C   0  0  0  0  0  0  0  0  0  0  0  0
    5.2486   13.3490   24.3545 C   0  0  0  0  0  0  0  0  0  0  0  0
    6.0982   10.3843   22.8502 H   0  0  0  0  0  0  0  0  0  0  0  0
    6.8980   11.0255   24.2999 H   0  0  0  0  0  0  0  0  0  0  0  0
    7.0729   11.8626   22.7322 H   0  0  0  0  0  0  0  0  0  0  0  0
    3.1711   15.8541   25.4086 H   0  0  0  0  0  0  0  0  0  0  0  0
    5.2881   16.7429   26.2686 H   0  0  0  0  0  0  0  0  0  0  0  0
    7.3999   15.5261   25.8744 H   0  0  0  0  0  0  0  0  0  0  0  0
    7.3876   13.3718   24.6928 H   0  0  0  0  0  0  0  0  0  0  0  0
  1  2  1  0  0  0  0
  1 13  1  0  0  0  0
  1 14  1  0  0  0  0
  1 15  1  0  0  0  0
  2  3  2  0  0  0  0
  2 12  1  0  0  0  0
  3  4  1  0  0  0  0
  4  5  2  0  0  0  0
  5  6  1  0  0  0  0
  5  7  1  0  0  0  0
  7  8  2  0  0  0  0
  7 12  1  0  0  0  0
  8  9  1  0  0  0  0
  8 16  1  0  0  0  0
  9 10  2  0  0  0  0
  9 17  1  0  0  0  0
 10 11  1  0  0  0  0
 10 18  1  0  0  0  0
 11 12  2  0  0  0  0
 11 19  1  0  0  0  0
M  END
$$$$
