3O0I_P54_A_237
 OpenBabel03301717193D

 44 46  0  0  0  0  0  0  0  0999 V2000
   -0.0154  -10.7301  -24.4469 C   0  0  0  0  0  0  0  0  0  0  0  0
   -0.8864  -10.1095  -23.5726 C   0  0  0  0  0  0  0  0  0  0  0  0
    1.3205  -10.8557  -24.1693 C   0  0  0  0  0  0  0  0  0  0  0  0
   -0.4366   -9.5865  -22.4153 N   0  3  0  0  0  0  0  0  0  0  0  0
    1.7579  -10.3439  -23.0042 N   0  0  0  0  0  0  0  0  0  0  0  0
    0.8706   -9.7476  -22.1736 C   0  0  0  0  0  0  0  0  0  0  0  0
   -0.8014  -11.1274  -25.5145 N   0  3  0  0  0  0  0  0  0  0  0  0
   -2.0733  -10.7450  -25.2138 C   0  0  0  0  0  0  0  0  0  0  0  0
   -2.1735  -10.1147  -24.0769 N   0  0  0  0  0  0  0  0  0  0  0  0
   -3.3273  -11.0318  -26.3456 S   0  0  0  0  0  0  0  0  0  0  0  0
    2.1998  -11.4576  -25.0207 N   0  0  0  0  0  0  0  0  0  0  0  0
   -1.3193   -8.8937  -21.4720 C   0  0  0  0  0  0  0  0  0  0  0  0
   -1.6245   -7.4725  -21.9200 C   0  0  0  0  0  0  0  0  0  0  0  0
   -0.3883   -6.6133  -22.1193 C   0  0  0  0  0  0  0  0  0  0  0  0
   -0.0856   -6.5214  -23.5215 C   0  0  0  0  0  0  0  0  0  0  0  0
    0.4231   -6.9354  -24.5181 C   0  0  0  0  0  0  0  0  0  0  0  0
   -4.3499  -12.1939  -25.4369 C   0  0  0  0  0  0  0  0  0  0  0  0
   -3.7911  -13.3565  -24.8888 C   0  0  0  0  0  0  0  0  0  0  0  0
   -4.5957  -14.3019  -24.2495 C   0  0  0  0  0  0  0  0  0  0  0  0
   -5.9760  -14.1076  -24.1494 C   0  0  0  0  0  0  0  0  0  0  0  0
   -5.7408  -12.0032  -25.3522 C   0  0  0  0  0  0  0  0  0  0  0  0
   -6.5407  -12.9579  -24.7045 C   0  0  0  0  0  0  0  0  0  0  0  0
   -6.4280  -10.7999  -25.9267 C   0  0  0  0  0  0  0  0  0  0  0  0
   -6.8436  -15.1120  -23.4642 C   0  0  0  0  0  0  0  0  0  0  0  0
    1.2736   -9.3428  -21.2485 H   0  0  0  0  0  0  0  0  0  0  0  0
   -0.5188  -11.6183  -26.3568 H   0  0  0  0  0  0  0  0  0  0  0  0
    3.1723  -11.5194  -24.7442 H   0  0  0  0  0  0  0  0  0  0  0  0
    1.9194  -11.8581  -25.9018 H   0  0  0  0  0  0  0  0  0  0  0  0
   -0.8420   -8.9052  -20.4906 H   0  0  0  0  0  0  0  0  0  0  0  0
   -2.2426   -9.4802  -21.4123 H   0  0  0  0  0  0  0  0  0  0  0  0
   -2.2317   -7.0058  -21.1410 H   0  0  0  0  0  0  0  0  0  0  0  0
   -2.2296   -7.5043  -22.8354 H   0  0  0  0  0  0  0  0  0  0  0  0
    0.4996   -7.1267  -21.7519 H   0  0  0  0  0  0  0  0  0  0  0  0
   -0.4445   -5.6603  -21.5917 H   0  0  0  0  0  0  0  0  0  0  0  0
    0.9817   -7.5572  -25.1666 H   0  0  0  0  0  0  0  0  0  0  0  0
   -2.7256  -13.5481  -24.9576 H   0  0  0  0  0  0  0  0  0  0  0  0
   -4.1479  -15.2001  -23.8298 H   0  0  0  0  0  0  0  0  0  0  0  0
   -7.6173  -12.7995  -24.6363 H   0  0  0  0  0  0  0  0  0  0  0  0
   -5.7299  -10.1187  -26.4107 H   0  0  0  0  0  0  0  0  0  0  0  0
   -6.9222  -10.2411  -25.1282 H   0  0  0  0  0  0  0  0  0  0  0  0
   -7.1574  -11.1062  -26.6809 H   0  0  0  0  0  0  0  0  0  0  0  0
   -6.2437  -15.9448  -23.0881 H   0  0  0  0  0  0  0  0  0  0  0  0
   -7.5875  -15.5089  -24.1609 H   0  0  0  0  0  0  0  0  0  0  0  0
   -7.3512  -14.6464  -22.6145 H   0  0  0  0  0  0  0  0  0  0  0  0
  1  2  2  0  0  0  0
  1  3  1  0  0  0  0
  1  7  1  0  0  0  0
  2  4  1  0  0  0  0
  2  9  1  0  0  0  0
  3  5  2  0  0  0  0
  3 11  1  0  0  0  0
  4  6  2  0  0  0  0
  4 12  1  0  0  0  0
  5  6  1  0  0  0  0
  6 25  1  0  0  0  0
  7  8  2  0  0  0  0
  7 26  1  0  0  0  0
  8  9  1  0  0  0  0
  8 10  1  0  0  0  0
 10 17  1  0  0  0  0
 11 27  1  0  0  0  0
 11 28  1  0  0  0  0
 12 13  1  0  0  0  0
 12 29  1  0  0  0  0
 12 30  1  0  0  0  0
 13 14  1  0  0  0  0
 13 31  1  0  0  0  0
 13 32  1  0  0  0  0
 14 15  1  0  0  0  0
 14 33  1  0  0  0  0
 14 34  1  0  0  0  0
 15 16  3  0  0  0  0
 16 35  1  0  0  0  0
 17 18  2  0  0  0  0
 17 21  1  0  0  0  0
 18 19  1  0  0  0  0
 18 36  1  0  0  0  0
 19 20  2  0  0  0  0
 19 37  1  0  0  0  0
 20 22  1  0  0  0  0
 20 24  1  0  0  0  0
 21 22  2  0  0  0  0
 21 23  1  0  0  0  0
 22 38  1  0  0  0  0
 23 39  1  0  0  0  0
 23 40  1  0  0  0  0
 23 41  1  0  0  0  0
 24 42  1  0  0  0  0
 24 43  1  0  0  0  0
 24 44  1  0  0  0  0
M  CHG  2   4   1   7   1
M  END
$$$$
