1UY7_PU4_A_1224
 OpenBabel03301716573D

 44 46  0  0  0  0  0  0  0  0999 V2000
    5.1483    7.0077   24.3238 C   0  0  0  0  0  0  0  0  0  0  0  0
    3.6290    6.9225   24.3834 C   0  0  0  0  0  0  0  0  0  0  0  0
    3.0272    7.4756   25.6778 C   0  0  0  0  0  0  0  0  0  0  0  0
    3.1052    8.9948   25.8227 C   0  0  0  0  0  0  0  0  0  0  0  0
    1.9969    9.6660   25.1717 N   0  3  0  0  0  0  0  0  0  0  0  0
    0.7374    9.7820   25.7070 C   0  0  0  0  0  0  0  0  0  0  0  0
    0.2984    9.2937   26.8768 N   0  0  0  0  0  0  0  0  0  0  0  0
   -0.9998    9.5992   27.0675 C   0  0  0  0  0  0  0  0  0  0  0  0
   -1.8215   10.3091   26.2650 N   0  0  0  0  0  0  0  0  0  0  0  0
    0.0168   10.5104   24.7778 C   0  0  0  0  0  0  0  0  0  0  0  0
   -1.3252   10.7863   25.0975 C   0  0  0  0  0  0  0  0  0  0  0  0
   -2.1641   11.5180   24.2896 N   0  0  0  0  0  0  0  0  0  0  0  0
    0.8109   10.8319   23.6911 N   0  0  0  0  0  0  0  0  0  0  0  0
    2.0055   10.3243   23.9626 C   0  0  0  0  0  0  0  0  0  0  0  0
    3.2568   10.5241   23.1518 C   0  0  0  0  0  0  0  0  0  0  0  0
    4.1217   11.6384   23.7031 C   0  0  0  0  0  0  0  0  0  0  0  0
    5.5135   11.5198   23.7941 C   0  0  0  0  0  0  0  0  0  0  0  0
    6.2786   12.5796   24.3014 C   0  0  0  0  0  0  0  0  0  0  0  0
    3.5194   12.8355   24.1192 C   0  0  0  0  0  0  0  0  0  0  0  0
    4.2817   13.8787   24.6387 C   0  0  0  0  0  0  0  0  0  0  0  0
    5.6621   13.7588   24.7325 C   0  0  0  0  0  0  0  0  0  0  0  0
    6.5040   14.7319   25.2019 O   0  0  0  0  0  0  0  0  0  0  0  0
    5.8813   15.7889   25.9255 C   0  0  0  0  0  0  0  0  0  0  0  0
    5.5100    6.5439   23.4001 H   0  0  0  0  0  0  0  0  0  0  0  0
    5.6040    6.4764   25.1653 H   0  0  0  0  0  0  0  0  0  0  0  0
    5.5035    8.0412   24.3358 H   0  0  0  0  0  0  0  0  0  0  0  0
    3.3506    5.8635   24.3047 H   0  0  0  0  0  0  0  0  0  0  0  0
    3.1945    7.4184   23.5105 H   0  0  0  0  0  0  0  0  0  0  0  0
    3.5348    7.0146   26.5326 H   0  0  0  0  0  0  0  0  0  0  0  0
    1.9786    7.1555   25.7265 H   0  0  0  0  0  0  0  0  0  0  0  0
    4.0465    9.3955   25.4333 H   0  0  0  0  0  0  0  0  0  0  0  0
    3.0687    9.2828   26.8765 H   0  0  0  0  0  0  0  0  0  0  0  0
   -1.4450    9.2219   27.9837 H   0  0  0  0  0  0  0  0  0  0  0  0
   -1.8111   11.8899   23.4204 H   0  0  0  0  0  0  0  0  0  0  0  0
   -3.1100   11.6747   24.6009 H   0  0  0  0  0  0  0  0  0  0  0  0
    2.9947   10.7601   22.1138 H   0  0  0  0  0  0  0  0  0  0  0  0
    3.8255    9.5907   23.1212 H   0  0  0  0  0  0  0  0  0  0  0  0
    6.0187   10.6096   23.4806 H   0  0  0  0  0  0  0  0  0  0  0  0
    7.3587   12.4837   24.3672 H   0  0  0  0  0  0  0  0  0  0  0  0
    2.4411   12.9632   24.0545 H   0  0  0  0  0  0  0  0  0  0  0  0
    3.7504   14.7719   24.9453 H   0  0  0  0  0  0  0  0  0  0  0  0
    6.6564   16.4975   26.2280 H   0  0  0  0  0  0  0  0  0  0  0  0
    5.3992   15.4034   26.8296 H   0  0  0  0  0  0  0  0  0  0  0  0
    5.1681   16.3435   25.3055 H   0  0  0  0  0  0  0  0  0  0  0  0
  1  2  1  0  0  0  0
  1 24  1  0  0  0  0
  1 25  1  0  0  0  0
  1 26  1  0  0  0  0
  2  3  1  0  0  0  0
  2 27  1  0  0  0  0
  2 28  1  0  0  0  0
  3  4  1  0  0  0  0
  3 29  1  0  0  0  0
  3 30  1  0  0  0  0
  4  5  1  0  0  0  0
  4 31  1  0  0  0  0
  4 32  1  0  0  0  0
  5  6  1  0  0  0  0
  5 14  2  0  0  0  0
  6  7  2  0  0  0  0
  6 10  1  0  0  0  0
  7  8  1  0  0  0  0
  8  9  2  0  0  0  0
  8 33  1  0  0  0  0
  9 11  1  0  0  0  0
 10 11  2  0  0  0  0
 10 13  1  0  0  0  0
 11 12  1  0  0  0  0
 12 34  1  0  0  0  0
 12 35  1  0  0  0  0
 13 14  1  0  0  0  0
 14 15  1  0  0  0  0
 15 16  1  0  0  0  0
 15 36  1  0  0  0  0
 15 37  1  0  0  0  0
 16 17  2  0  0  0  0
 16 19  1  0  0  0  0
 17 18  1  0  0  0  0
 17 38  1  0  0  0  0
 18 21  2  0  0  0  0
 18 39  1  0  0  0  0
 19 20  2  0  0  0  0
 19 40  1  0  0  0  0
 20 21  1  0  0  0  0
 20 41  1  0  0  0  0
 21 22  1  0  0  0  0
 22 23  1  0  0  0  0
 23 42  1  0  0  0  0
 23 43  1  0  0  0  0
 23 44  1  0  0  0  0
M  CHG  1   5   1
M  END
$$$$
