1UY8_PU5_A_1224
 OpenBabel03301716573D

 44 46  0  0  0  0  0  0  0  0999 V2000
    5.0406    7.3354   23.8313 C   0  0  0  0  0  0  0  0  0  0  0  0
    3.5566    7.3176   24.1713 C   0  0  0  0  0  0  0  0  0  0  0  0
    3.2604    7.7977   25.5958 C   0  0  0  0  0  0  0  0  0  0  0  0
    3.2437    9.3178   25.7685 C   0  0  0  0  0  0  0  0  0  0  0  0
    2.0915    9.9373   25.1410 N   0  3  0  0  0  0  0  0  0  0  0  0
    0.8343    9.9726   25.6920 C   0  0  0  0  0  0  0  0  0  0  0  0
    0.4322    9.4579   26.8648 N   0  0  0  0  0  0  0  0  0  0  0  0
   -0.8825    9.6879   27.0638 C   0  0  0  0  0  0  0  0  0  0  0  0
    3.2263   10.8642   23.0520 C   0  0  0  0  0  0  0  0  0  0  0  0
   -1.7556   10.3379   26.2628 N   0  0  0  0  0  0  0  0  0  0  0  0
    0.0601   10.6554   24.7723 C   0  0  0  0  0  0  0  0  0  0  0  0
   -1.2918   10.8551   25.1019 C   0  0  0  0  0  0  0  0  0  0  0  0
   -2.1607   11.5718   24.2997 N   0  0  0  0  0  0  0  0  0  0  0  0
    0.8083   11.0225   23.6755 N   0  0  0  0  0  0  0  0  0  0  0  0
    2.0376   10.6006   23.9304 C   0  0  0  0  0  0  0  0  0  0  0  0
    5.5563   11.7383   23.5147 C   0  0  0  0  0  0  0  0  0  0  0  0
    4.1677   11.9031   23.6162 C   0  0  0  0  0  0  0  0  0  0  0  0
    3.6707   13.0576   24.2379 C   0  0  0  0  0  0  0  0  0  0  0  0
    6.4164   12.6951   24.0509 C   0  0  0  0  0  0  0  0  0  0  0  0
    5.9056   13.8283   24.6901 C   0  0  0  0  0  0  0  0  0  0  0  0
    4.5259   14.0151   24.7790 C   0  0  0  0  0  0  0  0  0  0  0  0
    3.8917   15.0512   25.3947 O   0  0  0  0  0  0  0  0  0  0  0  0
    4.6714   16.2117   25.6584 C   0  0  0  0  0  0  0  0  0  0  0  0
    5.1923    6.9897   22.8041 H   0  0  0  0  0  0  0  0  0  0  0  0
    5.5947    6.6629   24.4942 H   0  0  0  0  0  0  0  0  0  0  0  0
    5.4724    8.3358   23.9174 H   0  0  0  0  0  0  0  0  0  0  0  0
    3.1972    6.2899   24.0682 H   0  0  0  0  0  0  0  0  0  0  0  0
    3.0003    7.9052   23.4339 H   0  0  0  0  0  0  0  0  0  0  0  0
    3.9978    7.3688   26.2841 H   0  0  0  0  0  0  0  0  0  0  0  0
    2.2843    7.3954   25.8935 H   0  0  0  0  0  0  0  0  0  0  0  0
    4.1577    9.7735   25.3800 H   0  0  0  0  0  0  0  0  0  0  0  0
    3.1998    9.5711   26.8344 H   0  0  0  0  0  0  0  0  0  0  0  0
   -1.2969    9.3004   27.9922 H   0  0  0  0  0  0  0  0  0  0  0  0
    2.8827   11.2070   22.0683 H   0  0  0  0  0  0  0  0  0  0  0  0
    3.7645    9.9273   22.8783 H   0  0  0  0  0  0  0  0  0  0  0  0
   -1.8433   11.7677   23.3589 H   0  0  0  0  0  0  0  0  0  0  0  0
   -3.1428   11.4585   24.4981 H   0  0  0  0  0  0  0  0  0  0  0  0
    5.9751   10.8602   23.0290 H   0  0  0  0  0  0  0  0  0  0  0  0
    2.5954   13.2191   24.3152 H   0  0  0  0  0  0  0  0  0  0  0  0
    7.4934   12.5519   23.9856 H   0  0  0  0  0  0  0  0  0  0  0  0
    6.6044   14.5417   25.1068 H   0  0  0  0  0  0  0  0  0  0  0  0
    4.0099   16.9588   26.1043 H   0  0  0  0  0  0  0  0  0  0  0  0
    5.0720   16.6272   24.7305 H   0  0  0  0  0  0  0  0  0  0  0  0
    5.4660   16.0022   26.3808 H   0  0  0  0  0  0  0  0  0  0  0  0
  1  2  1  0  0  0  0
  1 24  1  0  0  0  0
  1 25  1  0  0  0  0
  1 26  1  0  0  0  0
  2  3  1  0  0  0  0
  2 27  1  0  0  0  0
  2 28  1  0  0  0  0
  3  4  1  0  0  0  0
  3 29  1  0  0  0  0
  3 30  1  0  0  0  0
  4  5  1  0  0  0  0
  4 31  1  0  0  0  0
  4 32  1  0  0  0  0
  5  6  1  0  0  0  0
  5 15  2  0  0  0  0
  6  7  2  0  0  0  0
  6 11  1  0  0  0  0
  7  8  1  0  0  0  0
  8 10  2  0  0  0  0
  8 33  1  0  0  0  0
  9 15  1  0  0  0  0
  9 17  1  0  0  0  0
  9 34  1  0  0  0  0
  9 35  1  0  0  0  0
 10 12  1  0  0  0  0
 11 12  2  0  0  0  0
 11 14  1  0  0  0  0
 12 13  1  0  0  0  0
 13 36  1  0  0  0  0
 13 37  1  0  0  0  0
 14 15  1  0  0  0  0
 16 17  2  0  0  0  0
 16 19  1  0  0  0  0
 16 38  1  0  0  0  0
 17 18  1  0  0  0  0
 18 21  2  0  0  0  0
 18 39  1  0  0  0  0
 19 20  2  0  0  0  0
 19 40  1  0  0  0  0
 20 21  1  0  0  0  0
 20 41  1  0  0  0  0
 21 22  1  0  0  0  0
 22 23  1  0  0  0  0
 23 42  1  0  0  0  0
 23 43  1  0  0  0  0
 23 44  1  0  0  0  0
M  CHG  1   5   1
M  END
$$$$
