1UYE_PU9_A_1224
 OpenBabel03301716573D

 51 53  0  0  0  0  0  0  0  0999 V2000
    2.3034   13.9988   24.2671 Cl  0  0  0  0  0  0  0  0  0  0  0  0
    3.8971   13.2895   24.2925 C   0  0  0  0  0  0  0  0  0  0  0  0
    5.0069   14.0225   24.8445 C   0  0  0  0  0  0  0  0  0  0  0  0
    4.7748   15.1362   25.6218 O   0  0  0  0  0  0  0  0  0  0  0  0
    5.1746   16.4998   25.6664 C   0  0  0  0  0  0  0  0  0  0  0  0
    6.2918   13.4755   24.8539 C   0  0  0  0  0  0  0  0  0  0  0  0
    7.2337   14.1977   25.5455 O   0  0  0  0  0  0  0  0  0  0  0  0
    8.2946   14.7714   24.7801 C   0  0  0  0  0  0  0  0  0  0  0  0
    6.5243   12.2129   24.2830 C   0  0  0  0  0  0  0  0  0  0  0  0
    7.8195   11.7763   24.3522 O   0  0  0  0  0  0  0  0  0  0  0  0
    8.2576   10.6708   23.5859 C   0  0  0  0  0  0  0  0  0  0  0  0
    5.4577   11.5162   23.6827 C   0  0  0  0  0  0  0  0  0  0  0  0
    4.1250   12.0330   23.6841 C   0  0  0  0  0  0  0  0  0  0  0  0
    3.0441   11.1911   23.0051 C   0  0  0  0  0  0  0  0  0  0  0  0
    1.8624   10.8994   23.8617 C   0  0  0  0  0  0  0  0  0  0  0  0
    0.6301   11.3056   23.5909 N   0  0  0  0  0  0  0  0  0  0  0  0
   -0.1386   10.8815   24.6549 C   0  0  0  0  0  0  0  0  0  0  0  0
   -1.5121   10.9975   24.9715 C   0  0  0  0  0  0  0  0  0  0  0  0
   -2.4281   11.6389   24.1605 N   0  0  0  0  0  0  0  0  0  0  0  0
    0.6515   10.2089   25.5667 C   0  0  0  0  0  0  0  0  0  0  0  0
    0.2861    9.6317   26.7206 N   0  0  0  0  0  0  0  0  0  0  0  0
   -1.0272    9.8066   26.9355 C   0  0  0  0  0  0  0  0  0  0  0  0
   -1.9247   10.4430   26.1419 N   0  0  0  0  0  0  0  0  0  0  0  0
    1.9219   10.2211   25.0610 N   0  3  0  0  0  0  0  0  0  0  0  0
    3.0562    9.5710   25.6927 C   0  0  0  0  0  0  0  0  0  0  0  0
    3.0493    8.0633   25.4776 C   0  0  0  0  0  0  0  0  0  0  0  0
    3.1837    7.6908   23.9778 C   0  0  0  0  0  0  0  0  0  0  0  0
    4.5520    7.8418   23.4849 C   0  0  0  0  0  0  0  0  0  0  0  0
    5.7171    7.9510   23.0547 C   0  0  0  0  0  0  0  0  0  0  0  0
    4.9005   16.7881   26.7001 H   0  0  0  0  0  0  0  0  0  0  0  0
    4.5264   17.0839   24.9972 H   0  0  0  0  0  0  0  0  0  0  0  0
    6.2242   16.7702   25.5195 H   0  0  0  0  0  0  0  0  0  0  0  0
    8.9524   15.3521   25.4547 H   0  0  0  0  0  0  0  0  0  0  0  0
    7.9301   15.4689   24.0133 H   0  0  0  0  0  0  0  0  0  0  0  0
    8.9117   14.0006   24.3144 H   0  0  0  0  0  0  0  0  0  0  0  0
    9.3279   10.5083   23.7870 H   0  0  0  0  0  0  0  0  0  0  0  0
    8.1449   10.8577   22.5132 H   0  0  0  0  0  0  0  0  0  0  0  0
    7.7295    9.7590   23.8690 H   0  0  0  0  0  0  0  0  0  0  0  0
    5.6538   10.5556   23.2171 H   0  0  0  0  0  0  0  0  0  0  0  0
    3.4716   10.2399   22.6529 H   0  0  0  0  0  0  0  0  0  0  0  0
    2.7022   11.7182   22.1045 H   0  0  0  0  0  0  0  0  0  0  0  0
   -3.3858   11.7125   24.4556 H   0  0  0  0  0  0  0  0  0  0  0  0
   -2.1361   12.0508   23.2872 H   0  0  0  0  0  0  0  0  0  0  0  0
   -1.3986    9.3779   27.8556 H   0  0  0  0  0  0  0  0  0  0  0  0
    3.0372    9.7997   26.7680 H   0  0  0  0  0  0  0  0  0  0  0  0
    3.9713    9.9884   25.2851 H   0  0  0  0  0  0  0  0  0  0  0  0
    2.1064    7.6555   25.8756 H   0  0  0  0  0  0  0  0  0  0  0  0
    3.8719    7.6084   26.0400 H   0  0  0  0  0  0  0  0  0  0  0  0
    2.4850    8.3308   23.4292 H   0  0  0  0  0  0  0  0  0  0  0  0
    2.8404    6.6664   23.8758 H   0  0  0  0  0  0  0  0  0  0  0  0
    6.7005    8.0493   22.7427 H   0  0  0  0  0  0  0  0  0  0  0  0
  1  2  1  0  0  0  0
  2  3  2  0  0  0  0
  2 13  1  0  0  0  0
  3  4  1  0  0  0  0
  3  6  1  0  0  0  0
  4  5  1  0  0  0  0
  5 30  1  0  0  0  0
  5 31  1  0  0  0  0
  5 32  1  0  0  0  0
  6  7  1  0  0  0  0
  6  9  2  0  0  0  0
  7  8  1  0  0  0  0
  8 33  1  0  0  0  0
  8 34  1  0  0  0  0
  8 35  1  0  0  0  0
  9 10  1  0  0  0  0
  9 12  1  0  0  0  0
 10 11  1  0  0  0  0
 11 36  1  0  0  0  0
 11 37  1  0  0  0  0
 11 38  1  0  0  0  0
 12 13  2  0  0  0  0
 12 39  1  0  0  0  0
 13 14  1  0  0  0  0
 14 15  1  0  0  0  0
 14 40  1  0  0  0  0
 14 41  1  0  0  0  0
 15 16  1  0  0  0  0
 15 24  2  0  0  0  0
 16 17  1  0  0  0  0
 17 18  2  0  0  0  0
 17 20  1  0  0  0  0
 18 19  1  0  0  0  0
 18 23  1  0  0  0  0
 19 42  1  0  0  0  0
 19 43  1  0  0  0  0
 20 21  2  0  0  0  0
 20 24  1  0  0  0  0
 21 22  1  0  0  0  0
 22 23  2  0  0  0  0
 22 44  1  0  0  0  0
 24 25  1  0  0  0  0
 25 26  1  0  0  0  0
 25 45  1  0  0  0  0
 25 46  1  0  0  0  0
 26 27  1  0  0  0  0
 26 47  1  0  0  0  0
 26 48  1  0  0  0  0
 27 28  1  0  0  0  0
 27 49  1  0  0  0  0
 27 50  1  0  0  0  0
 28 29  3  0  0  0  0
 29 51  1  0  0  0  0
M  CHG  1  24   1
M  END
$$$$
