1UYI_PUZ_A_1224
 OpenBabel03301716583D

 47 49  0  0  0  0  0  0  0  0999 V2000
    5.2085    7.9181   28.9600 C   0  0  0  0  0  0  0  0  0  0  0  0
    4.9827    7.6190   27.8220 C   0  0  0  0  0  0  0  0  0  0  0  0
    4.6875    7.2878   26.4235 C   0  0  0  0  0  0  0  0  0  0  0  0
    3.3807    7.9187   25.9554 C   0  0  0  0  0  0  0  0  0  0  0  0
    3.4069    9.4425   26.0483 C   0  0  0  0  0  0  0  0  0  0  0  0
    2.2639   10.0274   25.3765 N   0  3  0  0  0  0  0  0  0  0  0  0
    1.0097   10.1273   25.9085 C   0  0  0  0  0  0  0  0  0  0  0  0
    0.6038    9.7314   27.1211 N   0  0  0  0  0  0  0  0  0  0  0  0
    0.2447   10.7135   24.9178 C   0  0  0  0  0  0  0  0  0  0  0  0
   -1.1095   10.9315   25.2199 C   0  0  0  0  0  0  0  0  0  0  0  0
   -2.0021   11.5067   24.3418 N   0  0  0  0  0  0  0  0  0  0  0  0
   -1.5717   10.5492   26.4295 N   0  0  0  0  0  0  0  0  0  0  0  0
   -0.7088    9.9804   27.2989 C   0  0  0  0  0  0  0  0  0  0  0  0
   -1.2224    9.6089   28.4829 F   0  0  0  0  0  0  0  0  0  0  0  0
    1.0137   10.9742   23.8000 N   0  0  0  0  0  0  0  0  0  0  0  0
    2.2317   10.5537   24.1020 C   0  0  0  0  0  0  0  0  0  0  0  0
    3.4534   10.6646   23.2369 C   0  0  0  0  0  0  0  0  0  0  0  0
    4.3876   11.7988   23.6275 C   0  0  0  0  0  0  0  0  0  0  0  0
    5.7593   11.7135   23.3362 C   0  0  0  0  0  0  0  0  0  0  0  0
    6.1827   10.5890   22.6771 O   0  0  0  0  0  0  0  0  0  0  0  0
    7.4693   10.0930   23.0353 C   0  0  0  0  0  0  0  0  0  0  0  0
    6.5985   12.7875   23.6452 C   0  0  0  0  0  0  0  0  0  0  0  0
    6.0915   13.9412   24.2619 C   0  0  0  0  0  0  0  0  0  0  0  0
    4.7407   14.0327   24.5783 C   0  0  0  0  0  0  0  0  0  0  0  0
    3.8995   12.9684   24.2491 C   0  0  0  0  0  0  0  0  0  0  0  0
    4.1216   15.0914   25.1835 O   0  0  0  0  0  0  0  0  0  0  0  0
    4.9365   16.1978   25.5514 C   0  0  0  0  0  0  0  0  0  0  0  0
    5.3968    8.1968   29.9728 H   0  0  0  0  0  0  0  0  0  0  0  0
    4.6182    6.2007   26.3117 H   0  0  0  0  0  0  0  0  0  0  0  0
    5.5100    7.6235   25.7815 H   0  0  0  0  0  0  0  0  0  0  0  0
    2.5392    7.5311   26.5432 H   0  0  0  0  0  0  0  0  0  0  0  0
    3.1998    7.6140   24.9163 H   0  0  0  0  0  0  0  0  0  0  0  0
    4.3218    9.8382   25.5958 H   0  0  0  0  0  0  0  0  0  0  0  0
    3.3938    9.7941   27.0856 H   0  0  0  0  0  0  0  0  0  0  0  0
   -2.9562   11.6200   24.6433 H   0  0  0  0  0  0  0  0  0  0  0  0
   -1.6812   11.8116   23.4342 H   0  0  0  0  0  0  0  0  0  0  0  0
    3.1573   10.7922   22.1900 H   0  0  0  0  0  0  0  0  0  0  0  0
    3.9842    9.7050   23.2966 H   0  0  0  0  0  0  0  0  0  0  0  0
    7.6439    9.1836   22.4500 H   0  0  0  0  0  0  0  0  0  0  0  0
    7.5004    9.8181   24.0950 H   0  0  0  0  0  0  0  0  0  0  0  0
    8.2714   10.7931   22.7865 H   0  0  0  0  0  0  0  0  0  0  0  0
    7.6499   12.7737   23.3808 H   0  0  0  0  0  0  0  0  0  0  0  0
    6.7773   14.7566   24.4633 H   0  0  0  0  0  0  0  0  0  0  0  0
    2.8391   13.0654   24.4834 H   0  0  0  0  0  0  0  0  0  0  0  0
    4.2917   16.9478   26.0203 H   0  0  0  0  0  0  0  0  0  0  0  0
    5.3963   16.6600   24.6717 H   0  0  0  0  0  0  0  0  0  0  0  0
    5.6938   15.9048   26.2855 H   0  0  0  0  0  0  0  0  0  0  0  0
  1  2  3  0  0  0  0
  1 28  1  0  0  0  0
  2  3  1  0  0  0  0
  3  4  1  0  0  0  0
  3 29  1  0  0  0  0
  3 30  1  0  0  0  0
  4  5  1  0  0  0  0
  4 31  1  0  0  0  0
  4 32  1  0  0  0  0
  5  6  1  0  0  0  0
  5 33  1  0  0  0  0
  5 34  1  0  0  0  0
  6  7  1  0  0  0  0
  6 16  2  0  0  0  0
  7  8  2  0  0  0  0
  7  9  1  0  0  0  0
  8 13  1  0  0  0  0
  9 10  2  0  0  0  0
  9 15  1  0  0  0  0
 10 11  1  0  0  0  0
 10 12  1  0  0  0  0
 11 35  1  0  0  0  0
 11 36  1  0  0  0  0
 12 13  2  0  0  0  0
 13 14  1  0  0  0  0
 15 16  1  0  0  0  0
 16 17  1  0  0  0  0
 17 18  1  0  0  0  0
 17 37  1  0  0  0  0
 17 38  1  0  0  0  0
 18 19  2  0  0  0  0
 18 25  1  0  0  0  0
 19 20  1  0  0  0  0
 19 22  1  0  0  0  0
 20 21  1  0  0  0  0
 21 39  1  0  0  0  0
 21 40  1  0  0  0  0
 21 41  1  0  0  0  0
 22 23  2  0  0  0  0
 22 42  1  0  0  0  0
 23 24  1  0  0  0  0
 23 43  1  0  0  0  0
 24 25  2  0  0  0  0
 24 26  1  0  0  0  0
 25 44  1  0  0  0  0
 26 27  1  0  0  0  0
 27 45  1  0  0  0  0
 27 46  1  0  0  0  0
 27 47  1  0  0  0  0
M  CHG  1   6   1
M  END
$$$$
