3D0B_SNX_A_233
 OpenBabel03301717153D

 51 54  0  0  1  0  0  0  0  0999 V2000
   -1.9394  -10.7491  -25.7378 O   0  0  0  0  0  0  0  0  0  0  0  0
   -1.5068  -11.3362  -24.7404 C   0  0  0  0  0  0  0  0  0  0  0  0
   -2.3862  -11.8455  -23.8294 N   0  0  0  0  0  0  0  0  0  0  0  0
   -0.0413  -11.5200  -24.5058 C   0  0  0  0  0  0  0  0  0  0  0  0
    0.3921  -12.5824  -23.6927 C   0  0  0  0  0  0  0  0  0  0  0  0
    1.7495  -12.8236  -23.5143 C   0  0  0  0  0  0  0  0  0  0  0  0
    0.9039  -10.6799  -25.1563 C   0  0  0  0  0  0  0  0  0  0  0  0
    0.5324   -9.6473  -26.0000 N   0  0  0  0  0  0  0  0  0  0  0  0
    1.4823   -8.7842  -26.6843 C   0  0  0  0  0  0  0  0  0  0  0  0
    0.7962   -7.7437  -27.5683 C   0  0  0  0  0  0  0  0  0  0  0  0
   -0.1920   -7.0452  -26.8081 O   0  0  0  0  0  0  0  0  0  0  0  0
   -0.1238   -5.6393  -26.9719 C   0  0  0  0  0  0  0  0  0  0  0  0
    2.2626  -10.9356  -24.9451 C   0  0  0  0  0  0  0  0  0  0  0  0
    2.6702  -11.9856  -24.1367 C   0  0  0  0  0  0  0  0  0  0  0  0
    4.0449  -12.2670  -24.0809 N   0  3  0  0  0  0  0  0  0  0  0  0
    5.0442  -11.4075  -23.6239 C   0  0  1  0  0  0  0  0  0  0  0  0
    4.9811  -10.1479  -23.0006 C   0  0  0  0  0  0  0  0  0  0  0  0
    6.1854   -9.5529  -22.5984 C   0  0  0  0  0  0  0  0  0  0  0  0
    7.4087  -10.1838  -22.8067 C   0  0  0  0  0  0  0  0  0  0  0  0
    7.4657  -11.4342  -23.4274 C   0  0  0  0  0  0  0  0  0  0  0  0
    4.6136  -13.4070  -24.6103 C   0  0  1  0  0  0  0  0  0  0  0  0
    3.8699  -14.5341  -25.2651 C   0  0  0  0  0  0  0  0  0  0  0  0
    4.8520  -15.4597  -25.9987 C   0  0  0  0  0  0  0  0  0  0  0  0
    6.1906  -15.6600  -25.2842 C   0  0  0  0  0  0  0  0  0  0  0  0
    6.8733  -14.3372  -24.9628 C   0  0  0  0  0  0  0  0  0  0  0  0
    8.0869  -14.2012  -25.0288 O   0  0  0  0  0  0  0  0  0  0  0  0
    5.9836  -13.2900  -24.4887 C   0  0  2  0  0  0  0  0  0  0  0  0
    6.2728  -12.0534  -23.8471 C   0  0  1  0  0  0  0  0  0  0  0  0
   -3.3768  -11.7322  -24.0243 H   0  0  0  0  0  0  0  0  0  0  0  0
   -2.1232  -12.2778  -22.9608 H   0  0  0  0  0  0  0  0  0  0  0  0
   -0.3151  -13.2562  -23.2153 H   0  0  0  0  0  0  0  0  0  0  0  0
    2.0786  -13.6534  -22.8966 H   0  0  0  0  0  0  0  0  0  0  0  0
   -0.4678   -9.4529  -26.1035 H   0  0  0  0  0  0  0  0  0  0  0  0
    2.1410   -9.3937  -27.3135 H   0  0  0  0  0  0  0  0  0  0  0  0
    2.0923   -8.2571  -25.9414 H   0  0  0  0  0  0  0  0  0  0  0  0
    0.3067   -8.2353  -28.4157 H   0  0  0  0  0  0  0  0  0  0  0  0
    1.5576   -7.0599  -27.9651 H   0  0  0  0  0  0  0  0  0  0  0  0
   -0.9042   -5.1844  -26.3557 H   0  0  0  0  0  0  0  0  0  0  0  0
   -0.2930   -5.3663  -28.0168 H   0  0  0  0  0  0  0  0  0  0  0  0
    0.8469   -5.2629  -26.6341 H   0  0  0  0  0  0  0  0  0  0  0  0
    3.0248  -10.3537  -25.4592 H   0  0  0  0  0  0  0  0  0  0  0  0
    4.0345   -9.6417  -22.8103 H   0  0  0  0  0  0  0  0  0  0  0  0
    6.1708   -8.5803  -22.1088 H   0  0  0  0  0  0  0  0  0  0  0  0
    8.3278   -9.7028  -22.4848 H   0  0  0  0  0  0  0  0  0  0  0  0
    8.4258  -11.9221  -23.5833 H   0  0  0  0  0  0  0  0  0  0  0  0
    3.1254  -14.1771  -25.9906 H   0  0  0  0  0  0  0  0  0  0  0  0
    3.3269  -15.1090  -24.5080 H   0  0  0  0  0  0  0  0  0  0  0  0
    5.0541  -15.0354  -26.9898 H   0  0  0  0  0  0  0  0  0  0  0  0
    4.3804  -16.4385  -26.1481 H   0  0  0  0  0  0  0  0  0  0  0  0
    6.8520  -16.2467  -25.9274 H   0  0  0  0  0  0  0  0  0  0  0  0
    6.0435  -16.2114  -24.3511 H   0  0  0  0  0  0  0  0  0  0  0  0
  1  2  2  0  0  0  0
  2  3  1  0  0  0  0
  2  4  1  0  0  0  0
  3 29  1  0  0  0  0
  3 30  1  0  0  0  0
  4  5  2  0  0  0  0
  4  7  1  0  0  0  0
  5  6  1  0  0  0  0
  5 31  1  0  0  0  0
  6 14  2  0  0  0  0
  6 32  1  0  0  0  0
  7  8  1  0  0  0  0
  7 13  2  0  0  0  0
  8  9  1  0  0  0  0
  8 33  1  0  0  0  0
  9 10  1  0  0  0  0
  9 34  1  0  0  0  0
  9 35  1  0  0  0  0
 10 11  1  0  0  0  0
 10 36  1  0  0  0  0
 10 37  1  0  0  0  0
 11 12  1  0  0  0  0
 12 38  1  0  0  0  0
 12 39  1  0  0  0  0
 12 40  1  0  0  0  0
 13 14  1  0  0  0  0
 13 41  1  0  0  0  0
 14 15  1  0  0  0  0
 16 15  1  1  0  0  0
 16 17  1  0  0  0  0
 16 28  1  0  0  0  0
 17 18  1  0  0  0  0
 17 42  1  0  0  0  0
 18 19  1  0  0  0  0
 18 43  1  0  0  0  0
 19 20  1  0  0  0  0
 19 44  1  0  0  0  0
 20 45  1  0  0  0  0
 21 15  1  6  0  0  0
 21 22  1  0  0  0  0
 21 27  1  0  0  0  0
 22 23  1  0  0  0  0
 22 46  1  0  0  0  0
 22 47  1  0  0  0  0
 23 24  1  0  0  0  0
 23 48  1  0  0  0  0
 23 49  1  0  0  0  0
 24 25  1  0  0  0  0
 24 50  1  0  0  0  0
 24 51  1  0  0  0  0
 25 26  2  0  0  0  0
 27 25  1  1  0  0  0
 27 28  1  0  0  0  0
 28 20  1  1  0  0  0
M  CHG  1  15   1
M  END
$$$$
