5FNF_TQL_A_1226
 OpenBabel03301717383D

 27 28  0  0  1  0  0  0  0  0999 V2000
    1.8984    8.3540   26.6046 C   0  0  0  0  0  0  0  0  0  0  0  0
    2.6465    7.2258   26.3297 C   0  0  0  0  0  0  0  0  0  0  0  0
    2.3075    6.4823   25.2141 C   0  0  0  0  0  0  0  0  0  0  0  0
    1.2985    6.7988   24.3762 N   0  0  0  0  0  0  0  0  0  0  0  0
    0.5780    7.9147   24.6723 C   0  0  0  0  0  0  0  0  0  0  0  0
    0.8451    8.7283   25.7739 C   0  0  0  0  0  0  0  0  0  0  0  0
    0.1254   10.0339   26.0894 C   0  0  2  0  0  0  0  0  0  0  0  0
   -1.0081    9.8824   27.0592 N   0  0  0  0  0  0  0  0  0  0  0  0
   -0.6806    9.2273   28.0628 O   0  0  0  0  0  0  0  0  0  0  0  0
   -0.0458   10.9322   24.8697 C   0  0  0  0  0  0  0  0  0  0  0  0
    1.1634   11.2379   24.2318 C   0  0  0  0  0  0  0  0  0  0  0  0
    1.1809   12.0268   23.0864 C   0  0  0  0  0  0  0  0  0  0  0  0
    0.0001   12.5122   22.5870 C   0  0  0  0  0  0  0  0  0  0  0  0
    0.0727   13.2692   21.4561 O   0  0  0  0  0  0  0  0  0  0  0  0
   -1.2205   12.2494   23.2079 C   0  0  0  0  0  0  0  0  0  0  0  0
   -1.2415   11.4531   24.3606 C   0  0  0  0  0  0  0  0  0  0  0  0
   -2.4323   11.2091   24.9752 O   0  0  0  0  0  0  0  0  0  0  0  0
    2.1444    8.9649   27.4754 H   0  0  0  0  0  0  0  0  0  0  0  0
    3.4583    6.9385   26.9801 H   0  0  0  0  0  0  0  0  0  0  0  0
    2.8648    5.5795   24.9747 H   0  0  0  0  0  0  0  0  0  0  0  0
   -0.1926    8.1513   23.9452 H   0  0  0  0  0  0  0  0  0  0  0  0
    0.8345   10.6331   26.6856 H   0  0  0  0  0  0  0  0  0  0  0  0
    2.1083   10.8556   24.6109 H   0  0  0  0  0  0  0  0  0  0  0  0
    2.1421   12.2370   22.6004 H   0  0  0  0  0  0  0  0  0  0  0  0
   -0.8235   13.5435   21.2106 H   0  0  0  0  0  0  0  0  0  0  0  0
   -2.1382   12.6457   22.8077 H   0  0  0  0  0  0  0  0  0  0  0  0
   -3.1345   11.7256   24.5488 H   0  0  0  0  0  0  0  0  0  0  0  0
  1  2  2  0  0  0  0
  1  6  1  0  0  0  0
  1 18  1  0  0  0  0
  2  3  1  0  0  0  0
  2 19  1  0  0  0  0
  3  4  2  0  0  0  0
  3 20  1  0  0  0  0
  4  5  1  0  0  0  0
  5  6  2  0  0  0  0
  5 21  1  0  0  0  0
  6  7  1  0  0  0  0
  7  8  1  0  0  0  0
  7 10  1  0  0  0  0
  7 22  1  1  0  0  0
  8  9  2  0  0  0  0
 10 11  2  0  0  0  0
 10 16  1  0  0  0  0
 11 12  1  0  0  0  0
 11 23  1  0  0  0  0
 12 13  2  0  0  0  0
 12 24  1  0  0  0  0
 13 14  1  0  0  0  0
 13 15  1  0  0  0  0
 14 25  1  0  0  0  0
 15 16  2  0  0  0  0
 15 26  1  0  0  0  0
 16 17  1  0  0  0  0
 17 27  1  0  0  0  0
M  END
$$$$
