3VHC_VHC_A_1
 OpenBabel03301717233D

 51 54  0  0  0  0  0  0  0  0999 V2000
   10.5545   -3.0562   15.3558 C   0  0  0  0  0  0  0  0  0  0  0  0
   10.3484   -1.6365   14.9012 C   0  0  0  0  0  0  0  0  0  0  0  0
    9.4412   -1.3940   13.8497 C   0  0  0  0  0  0  0  0  0  0  0  0
    9.2270   -0.1054   13.3300 C   0  0  0  0  0  0  0  0  0  0  0  0
    8.2479    0.0739   12.1960 C   0  0  0  0  0  0  0  0  0  0  0  0
    9.9397    0.9797   13.8631 C   0  0  0  0  0  0  0  0  0  0  0  0
   10.8246    0.7352   14.9455 C   0  0  0  0  0  0  0  0  0  0  0  0
   11.0387   -0.5511   15.4644 C   0  0  0  0  0  0  0  0  0  0  0  0
   11.9779   -0.7133   16.6250 C   0  0  0  0  0  0  0  0  0  0  0  0
   11.7669   -1.5459   17.4967 O   0  0  0  0  0  0  0  0  0  0  0  0
   13.0691    0.1340   16.6437 N   0  0  0  0  0  0  0  0  0  0  0  0
   14.0829    0.0877   17.6822 C   0  0  0  0  0  0  0  0  0  0  0  0
   14.6886    1.4652   17.9767 C   0  0  0  0  0  0  0  0  0  0  0  0
   15.4114    2.0584   16.7629 C   0  0  0  0  0  0  0  0  0  0  0  0
   14.3800    2.5266   15.8992 O   0  0  0  0  0  0  0  0  0  0  0  0
   14.7066    3.1732   14.7502 C   0  0  0  0  0  0  0  0  0  0  0  0
   13.6377    3.8944   14.2109 C   0  0  0  0  0  0  0  0  0  0  0  0
   15.9124    3.1018   14.0665 C   0  0  0  0  0  0  0  0  0  0  0  0
   16.0286    3.7377   12.8260 C   0  0  0  0  0  0  0  0  0  0  0  0
   14.9371    4.4159   12.2681 C   0  0  0  0  0  0  0  0  0  0  0  0
   13.7190    4.4840   12.9570 C   0  0  0  0  0  0  0  0  0  0  0  0
   12.3287    5.3005   12.1727 S   0  0  0  0  0  0  0  0  0  0  0  0
   10.8969    4.3090   12.5882 C   0  0  0  0  0  0  0  0  0  0  0  0
    9.7249    4.9666   12.6619 N   0  0  0  0  0  0  0  0  0  0  0  0
   10.9933    2.9667   12.8488 C   0  0  0  0  0  0  0  0  0  0  0  0
    9.8577    2.3459   13.3245 C   0  0  0  0  0  0  0  0  0  0  0  0
    8.6736    2.9820   13.4082 N   0  0  0  0  0  0  0  0  0  0  0  0
    8.6580    4.2710   13.0640 C   0  0  0  0  0  0  0  0  0  0  0  0
    7.4630    4.9433   13.1627 N   0  0  0  0  0  0  0  0  0  0  0  0
    9.9404   -3.7556   14.7753 H   0  0  0  0  0  0  0  0  0  0  0  0
   10.2686   -3.1806   16.4041 H   0  0  0  0  0  0  0  0  0  0  0  0
   11.5990   -3.3493   15.2128 H   0  0  0  0  0  0  0  0  0  0  0  0
    8.8936   -2.2353   13.4180 H   0  0  0  0  0  0  0  0  0  0  0  0
    7.7969   -0.8799   11.9010 H   0  0  0  0  0  0  0  0  0  0  0  0
    8.7555    0.4833   11.3169 H   0  0  0  0  0  0  0  0  0  0  0  0
    7.4320    0.7382   12.4951 H   0  0  0  0  0  0  0  0  0  0  0  0
   11.3294    1.5861   15.4028 H   0  0  0  0  0  0  0  0  0  0  0  0
   13.2789    0.6904   15.8230 H   0  0  0  0  0  0  0  0  0  0  0  0
   14.8622   -0.6053   17.3473 H   0  0  0  0  0  0  0  0  0  0  0  0
   13.6457   -0.3215   18.5988 H   0  0  0  0  0  0  0  0  0  0  0  0
   15.3878    1.3771   18.8142 H   0  0  0  0  0  0  0  0  0  0  0  0
   13.8814    2.1443   18.2823 H   0  0  0  0  0  0  0  0  0  0  0  0
   16.0286    1.2967   16.2735 H   0  0  0  0  0  0  0  0  0  0  0  0
   16.0395    2.8994   17.0783 H   0  0  0  0  0  0  0  0  0  0  0  0
   12.7195    3.9528   14.7934 H   0  0  0  0  0  0  0  0  0  0  0  0
   16.7617    2.5499   14.4541 H   0  0  0  0  0  0  0  0  0  0  0  0
   16.9655    3.6859   12.2747 H   0  0  0  0  0  0  0  0  0  0  0  0
   15.0472    4.8822   11.2911 H   0  0  0  0  0  0  0  0  0  0  0  0
   11.9212    2.4169   12.7708 H   0  0  0  0  0  0  0  0  0  0  0  0
    6.6587    4.3349   13.1705 H   0  0  0  0  0  0  0  0  0  0  0  0
    7.4389    5.7954   12.6231 H   0  0  0  0  0  0  0  0  0  0  0  0
  1  2  1  0  0  0  0
  1 30  1  0  0  0  0
  1 31  1  0  0  0  0
  1 32  1  0  0  0  0
  2  3  2  0  0  0  0
  2  8  1  0  0  0  0
  3  4  1  0  0  0  0
  3 33  1  0  0  0  0
  4  5  1  0  0  0  0
  4  6  2  0  0  0  0
  5 34  1  0  0  0  0
  5 35  1  0  0  0  0
  5 36  1  0  0  0  0
  6  7  1  0  0  0  0
  6 26  1  0  0  0  0
  7  8  2  0  0  0  0
  7 37  1  0  0  0  0
  8  9  1  0  0  0  0
  9 10  2  0  0  0  0
  9 11  1  0  0  0  0
 11 12  1  0  0  0  0
 11 38  1  0  0  0  0
 12 13  1  0  0  0  0
 12 39  1  0  0  0  0
 12 40  1  0  0  0  0
 13 14  1  0  0  0  0
 13 41  1  0  0  0  0
 13 42  1  0  0  0  0
 14 15  1  0  0  0  0
 14 43  1  0  0  0  0
 14 44  1  0  0  0  0
 15 16  1  0  0  0  0
 16 17  2  0  0  0  0
 16 18  1  0  0  0  0
 17 21  1  0  0  0  0
 17 45  1  0  0  0  0
 18 19  2  0  0  0  0
 18 46  1  0  0  0  0
 19 20  1  0  0  0  0
 19 47  1  0  0  0  0
 20 21  2  0  0  0  0
 20 48  1  0  0  0  0
 21 22  1  0  0  0  0
 22 23  1  0  0  0  0
 23 24  2  0  0  0  0
 23 25  1  0  0  0  0
 24 28  1  0  0  0  0
 25 26  2  0  0  0  0
 25 49  1  0  0  0  0
 26 27  1  0  0  0  0
 27 28  2  0  0  0  0
 28 29  1  0  0  0  0
 29 50  1  0  0  0  0
 29 51  1  0  0  0  0
M  END
$$$$
