2YEG_XQG_B_1224
 OpenBabel03301717103D

 17 18  0  0  0  0  0  0  0  0999 V2000
   29.6723   55.0175   99.5212 C   0  0  0  0  0  0  0  0  0  0  0  0
   28.5044   55.3801   98.8382 C   0  0  0  0  0  0  0  0  0  0  0  0
   27.3140   55.1693   99.5193 C   0  0  0  0  0  0  0  0  0  0  0  0
   28.3405   54.3511  101.3019 C   0  0  0  0  0  0  0  0  0  0  0  0
   26.9393   56.0349   97.5271 C   0  0  0  0  0  0  0  0  0  0  0  0
   32.3696   54.5778   99.9555 C   0  0  0  0  0  0  0  0  0  0  0  0
   29.5752   54.4946  100.7719 N   0  0  0  0  0  0  0  0  0  0  0  0
   27.1502   54.6616  100.7478 N   0  0  0  0  0  0  0  0  0  0  0  0
   26.3329   55.5908   98.6696 N   0  3  0  0  0  0  0  0  0  0  0  0
   28.2477   55.9235   97.5937 N   0  0  0  0  0  0  0  0  0  0  0  0
   31.2333   55.2616   98.7277 S   0  0  0  0  0  0  0  0  0  0  0  0
   28.2993   53.9313  102.3037 H   0  0  0  0  0  0  0  0  0  0  0  0
   26.3805   56.4258   96.6867 H   0  0  0  0  0  0  0  0  0  0  0  0
   33.3894   54.6695   99.5697 H   0  0  0  0  0  0  0  0  0  0  0  0
   32.1662   53.5183  100.1322 H   0  0  0  0  0  0  0  0  0  0  0  0
   32.3110   55.1306  100.8968 H   0  0  0  0  0  0  0  0  0  0  0  0
   25.3438   55.5724   98.8651 H   0  0  0  0  0  0  0  0  0  0  0  0
  1  2  2  0  0  0  0
  1  7  1  0  0  0  0
  1 11  1  0  0  0  0
  2  3  1  0  0  0  0
  2 10  1  0  0  0  0
  3  8  2  0  0  0  0
  3  9  1  0  0  0  0
  4  7  2  0  0  0  0
  4  8  1  0  0  0  0
  4 12  1  0  0  0  0
  5  9  2  0  0  0  0
  5 10  1  0  0  0  0
  5 13  1  0  0  0  0
  6 11  1  0  0  0  0
  6 14  1  0  0  0  0
  6 15  1  0  0  0  0
  6 16  1  0  0  0  0
  9 17  1  0  0  0  0
M  CHG  1   9   1
M  END
$$$$
