2YI0_YI0_A_1225
 OpenBabel03301717113D

 33 35  0  0  0  0  0  0  0  0999 V2000
   30.0956    9.0278   28.0641 N   0  0  0  0  0  0  0  0  0  0  0  0
   29.9968    9.9193   27.0953 N   0  0  0  0  0  0  0  0  0  0  0  0
   30.8370    9.6150   26.0357 C   0  0  0  0  0  0  0  0  0  0  0  0
   31.6140    8.4771   26.2121 C   0  0  0  0  0  0  0  0  0  0  0  0
   30.8933   10.4737   24.8635 C   0  0  0  0  0  0  0  0  0  0  0  0
   32.5569    7.8197   25.3346 C   0  0  0  0  0  0  0  0  0  0  0  0
   32.1540    7.4100   24.0585 C   0  0  0  0  0  0  0  0  0  0  0  0
   33.0476    6.8007   23.1752 C   0  0  0  0  0  0  0  0  0  0  0  0
   34.3891    6.6558   23.5292 C   0  0  0  0  0  0  0  0  0  0  0  0
   34.8092    7.0846   24.7782 C   0  0  0  0  0  0  0  0  0  0  0  0
   33.9043    7.6494   25.6883 C   0  0  0  0  0  0  0  0  0  0  0  0
   29.7190   10.8305   24.1576 C   0  0  0  0  0  0  0  0  0  0  0  0
   29.7777   11.5867   22.9839 C   0  0  0  0  0  0  0  0  0  0  0  0
   31.0214   12.0424   22.5587 C   0  0  0  0  0  0  0  0  0  0  0  0
   32.1855   11.7433   23.2848 C   0  0  0  0  0  0  0  0  0  0  0  0
   32.1326   10.9355   24.4132 C   0  0  0  0  0  0  0  0  0  0  0  0
   31.0896   12.7487   21.3861 O   0  0  0  0  0  0  0  0  0  0  0  0
   28.5092   10.3893   24.6148 O   0  0  0  0  0  0  0  0  0  0  0  0
   35.3541    6.1015   22.7326 O   0  0  0  0  0  0  0  0  0  0  0  0
   31.1881    7.8121   27.7316 S   0  0  0  0  0  0  0  0  0  0  0  0
   34.9559    5.7512   21.4121 C   0  0  0  0  0  0  0  0  0  0  0  0
   33.7117   12.3548   22.7813 Cl  0  0  0  0  0  0  0  0  0  0  0  0
   31.1238    7.5646   23.7454 H   0  0  0  0  0  0  0  0  0  0  0  0
   32.6537    6.4574   22.2250 H   0  0  0  0  0  0  0  0  0  0  0  0
   35.8509    6.9655   25.0620 H   0  0  0  0  0  0  0  0  0  0  0  0
   34.2638    7.9714   26.6572 H   0  0  0  0  0  0  0  0  0  0  0  0
   28.8853   11.7936   22.3957 H   0  0  0  0  0  0  0  0  0  0  0  0
   33.0487   10.6726   24.9400 H   0  0  0  0  0  0  0  0  0  0  0  0
   32.0372   12.8729   21.1696 H   0  0  0  0  0  0  0  0  0  0  0  0
   27.8000   10.7164   24.0397 H   0  0  0  0  0  0  0  0  0  0  0  0
   35.8118    5.2932   20.9068 H   0  0  0  0  0  0  0  0  0  0  0  0
   34.6634    6.6438   20.8476 H   0  0  0  0  0  0  0  0  0  0  0  0
   34.1431    5.0161   21.4245 H   0  0  0  0  0  0  0  0  0  0  0  0
  1  2  2  0  0  0  0
  1 20  1  0  0  0  0
  2  3  1  0  0  0  0
  3  4  2  0  0  0  0
  3  5  1  0  0  0  0
  4  6  1  0  0  0  0
  4 20  1  0  0  0  0
  5 12  2  0  0  0  0
  5 16  1  0  0  0  0
  6  7  2  0  0  0  0
  6 11  1  0  0  0  0
  7  8  1  0  0  0  0
  7 23  1  0  0  0  0
  8  9  2  0  0  0  0
  8 24  1  0  0  0  0
  9 10  1  0  0  0  0
  9 19  1  0  0  0  0
 10 11  2  0  0  0  0
 10 25  1  0  0  0  0
 11 26  1  0  0  0  0
 12 13  1  0  0  0  0
 12 18  1  0  0  0  0
 13 14  2  0  0  0  0
 13 27  1  0  0  0  0
 14 15  1  0  0  0  0
 14 17  1  0  0  0  0
 15 16  2  0  0  0  0
 15 22  1  0  0  0  0
 16 28  1  0  0  0  0
 17 29  1  0  0  0  0
 18 30  1  0  0  0  0
 19 21  1  0  0  0  0
 21 31  1  0  0  0  0
 21 32  1  0  0  0  0
 21 33  1  0  0  0  0
M  END
$$$$
