2YJX_YJX_A_1224
 OpenBabel03301717123D

 37 41  0  0  0  0  0  0  0  0999 V2000
    8.5978   10.3566  -26.0985 C   0  0  0  0  0  0  0  0  0  0  0  0
    7.4567    9.7472  -26.6701 C   0  0  0  0  0  0  0  0  0  0  0  0
    8.5454   11.5533  -25.3234 C   0  0  0  0  0  0  0  0  0  0  0  0
    6.2159   10.3749  -26.4869 C   0  0  0  0  0  0  0  0  0  0  0  0
   12.3039   14.3447  -23.9110 C   0  0  0  0  0  0  0  0  0  0  0  0
   13.2581   14.5512  -22.9092 C   0  0  0  0  0  0  0  0  0  0  0  0
   11.6459   14.7473  -21.1706 C   0  0  0  0  0  0  0  0  0  0  0  0
    7.2992   12.1654  -25.1347 C   0  0  0  0  0  0  0  0  0  0  0  0
    6.1623   11.5581  -25.7301 C   0  0  0  0  0  0  0  0  0  0  0  0
   10.9858   14.3639  -23.4730 C   0  0  0  0  0  0  0  0  0  0  0  0
   10.6403   14.5624  -22.1357 C   0  0  0  0  0  0  0  0  0  0  0  0
    8.7868   14.2913  -23.2013 C   0  0  0  0  0  0  0  0  0  0  0  0
    6.8146   13.3541  -24.3520 C   0  0  0  0  0  0  0  0  0  0  0  0
    4.9080   12.3645  -25.3687 C   0  0  0  0  0  0  0  0  0  0  0  0
    7.4018   14.2610  -23.5260 C   0  0  0  0  0  0  0  0  0  0  0  0
    6.5117   15.2489  -22.7700 C   0  0  0  0  0  0  0  0  0  0  0  0
    5.2317   15.6241  -23.4944 C   0  0  0  0  0  0  0  0  0  0  0  0
    4.5096   14.3976  -24.0064 C   0  0  0  0  0  0  0  0  0  0  0  0
   12.9662   14.7364  -21.5837 N   0  0  0  0  0  0  0  0  0  0  0  0
    9.7853   14.2233  -24.1551 N   0  3  0  0  0  0  0  0  0  0  0  0
    9.2740   14.5305  -21.9984 N   0  0  0  0  0  0  0  0  0  0  0  0
    5.4181   13.4036  -24.5591 N   0  0  0  0  0  0  0  0  0  0  0  0
    3.7673   12.1883  -25.6823 O   0  0  0  0  0  0  0  0  0  0  0  0
    9.5655    9.8809  -26.2644 H   0  0  0  0  0  0  0  0  0  0  0  0
    7.5464    8.8036  -27.2418 H   0  0  0  0  0  0  0  0  0  0  0  0
    9.4861   11.9165  -24.8898 H   0  0  0  0  0  0  0  0  0  0  0  0
    5.3247    9.9343  -26.9307 H   0  0  0  0  0  0  0  0  0  0  0  0
   12.5697   14.1859  -24.9523 H   0  0  0  0  0  0  0  0  0  0  0  0
   14.3214   14.5701  -23.2044 H   0  0  0  0  0  0  0  0  0  0  0  0
   11.3890   14.8945  -20.1097 H   0  0  0  0  0  0  0  0  0  0  0  0
    7.0770   16.1746  -22.5777 H   0  0  0  0  0  0  0  0  0  0  0  0
    6.2489   14.8186  -21.7908 H   0  0  0  0  0  0  0  0  0  0  0  0
    5.4713   16.2736  -24.3443 H   0  0  0  0  0  0  0  0  0  0  0  0
    4.5674   16.1861  -22.8198 H   0  0  0  0  0  0  0  0  0  0  0  0
    3.7854   14.7059  -24.7802 H   0  0  0  0  0  0  0  0  0  0  0  0
    3.9265   13.9522  -23.1859 H   0  0  0  0  0  0  0  0  0  0  0  0
    9.6693   14.0687  -25.1584 H   0  0  0  0  0  0  0  0  0  0  0  0
  1  2  2  0  0  0  0
  1  3  1  0  0  0  0
  1 24  1  0  0  0  0
  2  4  1  0  0  0  0
  2 25  1  0  0  0  0
  3  8  2  0  0  0  0
  3 26  1  0  0  0  0
  4  9  2  0  0  0  0
  4 27  1  0  0  0  0
  5  6  2  0  0  0  0
  5 10  1  0  0  0  0
  5 28  1  0  0  0  0
  6 19  1  0  0  0  0
  6 29  1  0  0  0  0
  7 11  1  0  0  0  0
  7 19  2  0  0  0  0
  7 30  1  0  0  0  0
  8  9  1  0  0  0  0
  8 13  1  0  0  0  0
  9 14  1  0  0  0  0
 10 11  2  0  0  0  0
 10 20  1  0  0  0  0
 11 21  1  0  0  0  0
 12 15  1  0  0  0  0
 12 20  2  0  0  0  0
 12 21  1  0  0  0  0
 13 15  2  0  0  0  0
 13 22  1  0  0  0  0
 14 22  1  0  0  0  0
 14 23  2  0  0  0  0
 15 16  1  0  0  0  0
 16 17  1  0  0  0  0
 16 31  1  0  0  0  0
 16 32  1  0  0  0  0
 17 18  1  0  0  0  0
 17 33  1  0  0  0  0
 17 34  1  0  0  0  0
 18 22  1  0  0  0  0
 18 35  1  0  0  0  0
 18 36  1  0  0  0  0
 20 37  1  0  0  0  0
M  CHG  1  20   1
M  END
$$$$
