2YKI_YKI_A_1224
 OpenBabel03301717133D

 52 58  0  0  1  0  0  0  0  0999 V2000
   13.2459   14.4069   26.4983 C   0  0  0  0  0  0  0  0  0  0  0  0
   13.0007   14.6132   27.8137 N   0  0  0  0  0  0  0  0  0  0  0  0
   11.7077   14.6892   28.2332 C   0  0  0  0  0  0  0  0  0  0  0  0
    9.2928   14.6000   27.4942 N   0  0  0  0  0  0  0  0  0  0  0  0
   12.2725   14.2604   25.5227 C   0  0  0  0  0  0  0  0  0  0  0  0
    9.7436   14.2692   25.3537 N   0  3  0  0  0  0  0  0  0  0  0  0
    8.7499   14.3480   26.3050 C   0  0  0  0  0  0  0  0  0  0  0  0
    3.5233   11.7487   24.8169 N   0  0  0  0  0  0  0  0  0  0  0  0
   10.9587   14.3536   25.9826 C   0  0  0  0  0  0  0  0  0  0  0  0
   -1.2104   10.2734   26.1505 N   0  0  0  0  0  0  0  0  0  0  0  0
   10.6587   14.5630   27.3164 C   0  0  0  0  0  0  0  0  0  0  0  0
   -2.2859   11.5557   24.3983 N   0  3  0  0  0  0  0  0  0  0  0  0
    7.3154   14.3335   25.9987 C   0  0  0  0  0  0  0  0  0  0  0  0
    4.4989   14.5774   25.6149 C   0  0  0  0  0  0  0  0  0  0  0  0
    5.1764   15.5286   26.3641 C   0  0  0  0  0  0  0  0  0  0  0  0
    6.5599   15.4148   26.5510 C   0  0  0  0  0  0  0  0  0  0  0  0
    2.4167   11.3944   24.0704 C   0  0  0  0  0  0  0  0  0  0  0  0
    1.1961   11.0179   24.8220 C   0  0  0  0  0  0  0  0  0  0  0  0
    2.3918   11.4375   22.8455 O   0  0  0  0  0  0  0  0  0  0  0  0
    1.2338   10.2349   25.9796 C   0  0  0  0  0  0  0  0  0  0  0  0
    0.0239    9.8984   26.5765 C   0  0  0  0  0  0  0  0  0  0  0  0
    4.6407   12.4098   24.1766 C   0  0  1  0  0  0  0  0  0  0  0  0
    5.2213   13.5219   25.0508 C   0  0  0  0  0  0  0  0  0  0  0  0
    6.6330   13.3695   25.2273 C   0  0  0  0  0  0  0  0  0  0  0  0
    5.8577   11.5270   23.9506 C   0  0  0  0  0  0  0  0  0  0  0  0
    7.0177   12.1184   24.5288 C   0  0  0  0  0  0  0  0  0  0  0  0
    8.2377   11.4647   24.3516 C   0  0  0  0  0  0  0  0  0  0  0  0
    8.3007   10.2680   23.6063 C   0  0  0  0  0  0  0  0  0  0  0  0
    7.1480    9.7014   23.0499 C   0  0  0  0  0  0  0  0  0  0  0  0
    5.9112   10.3347   23.2224 C   0  0  0  0  0  0  0  0  0  0  0  0
   -0.0576   11.4478   24.3368 C   0  0  0  0  0  0  0  0  0  0  0  0
   -1.1813   11.0437   25.0429 C   0  0  0  0  0  0  0  0  0  0  0  0
   -1.8991   12.2947   23.3098 C   0  0  0  0  0  0  0  0  0  0  0  0
   -0.5223   12.2485   23.2516 C   0  0  0  0  0  0  0  0  0  0  0  0
   14.3020   14.3567   26.2378 H   0  0  0  0  0  0  0  0  0  0  0  0
   11.5438   14.8561   29.2907 H   0  0  0  0  0  0  0  0  0  0  0  0
   12.5300   14.0972   24.4755 H   0  0  0  0  0  0  0  0  0  0  0  0
    9.5880   14.1324   24.3676 H   0  0  0  0  0  0  0  0  0  0  0  0
    3.4502   11.8527   25.8184 H   0  0  0  0  0  0  0  0  0  0  0  0
   -3.2374   11.3940   24.6977 H   0  0  0  0  0  0  0  0  0  0  0  0
    3.4243   14.6583   25.4776 H   0  0  0  0  0  0  0  0  0  0  0  0
    4.6357   16.3657   26.8112 H   0  0  0  0  0  0  0  0  0  0  0  0
    7.0603   16.1829   27.1423 H   0  0  0  0  0  0  0  0  0  0  0  0
    2.1686    9.8660   26.3930 H   0  0  0  0  0  0  0  0  0  0  0  0
    0.0144    9.2680   27.4658 H   0  0  0  0  0  0  0  0  0  0  0  0
    4.3129   12.8398   23.2182 H   0  0  0  0  0  0  0  0  0  0  0  0
    9.1624   11.8339   24.7718 H   0  0  0  0  0  0  0  0  0  0  0  0
    9.2609    9.7665   23.4574 H   0  0  0  0  0  0  0  0  0  0  0  0
    7.2164    8.7767   22.4805 H   0  0  0  0  0  0  0  0  0  0  0  0
    5.0187    9.9009   22.7770 H   0  0  0  0  0  0  0  0  0  0  0  0
   -2.6194   12.7819   22.6631 H   0  0  0  0  0  0  0  0  0  0  0  0
    0.0899   12.7291   22.4989 H   0  0  0  0  0  0  0  0  0  0  0  0
  1  2  2  0  0  0  0
  1  5  1  0  0  0  0
  1 35  1  0  0  0  0
  2  3  1  0  0  0  0
  3 11  2  0  0  0  0
  3 36  1  0  0  0  0
  4  7  1  0  0  0  0
  4 11  1  0  0  0  0
  5  9  2  0  0  0  0
  5 37  1  0  0  0  0
  6  7  2  0  0  0  0
  6  9  1  0  0  0  0
  6 38  1  0  0  0  0
  7 13  1  0  0  0  0
  8 17  1  0  0  0  0
  8 22  1  0  0  0  0
  8 39  1  0  0  0  0
  9 11  1  0  0  0  0
 10 21  1  0  0  0  0
 10 32  1  0  0  0  0
 12 32  2  0  0  0  0
 12 33  1  0  0  0  0
 12 40  1  0  0  0  0
 13 16  2  0  0  0  0
 13 24  1  0  0  0  0
 14 15  2  0  0  0  0
 14 23  1  0  0  0  0
 14 41  1  0  0  0  0
 15 16  1  0  0  0  0
 15 42  1  0  0  0  0
 16 43  1  0  0  0  0
 17 18  1  0  0  0  0
 17 19  2  0  0  0  0
 18 20  1  0  0  0  0
 18 31  2  0  0  0  0
 20 21  2  0  0  0  0
 20 44  1  0  0  0  0
 21 45  1  0  0  0  0
 22 23  1  0  0  0  0
 22 25  1  0  0  0  0
 22 46  1  6  0  0  0
 23 24  2  0  0  0  0
 24 26  1  0  0  0  0
 25 26  2  0  0  0  0
 25 30  1  0  0  0  0
 26 27  1  0  0  0  0
 27 28  2  0  0  0  0
 27 47  1  0  0  0  0
 28 29  1  0  0  0  0
 28 48  1  0  0  0  0
 29 30  2  0  0  0  0
 29 49  1  0  0  0  0
 30 50  1  0  0  0  0
 31 32  1  0  0  0  0
 31 34  1  0  0  0  0
 33 34  2  0  0  0  0
 33 51  1  0  0  0  0
 34 52  1  0  0  0  0
M  CHG  2   6   1  12   1
M  END
$$$$
