2YKJ_YKJ_A_1224
 OpenBabel03301717133D

 50 55  0  0  1  0  0  0  0  0999 V2000
   13.1249   14.5152   26.3324 C   0  0  0  0  0  0  0  0  0  0  0  0
   12.8769   14.6870   27.6511 N   0  0  0  0  0  0  0  0  0  0  0  0
   11.5857   14.7234   28.0788 C   0  0  0  0  0  0  0  0  0  0  0  0
    9.1767   14.5629   27.3502 N   0  0  0  0  0  0  0  0  0  0  0  0
   12.1538   14.3808   25.3448 C   0  0  0  0  0  0  0  0  0  0  0  0
    9.6235   14.3305   25.1964 N   0  3  0  0  0  0  0  0  0  0  0  0
    8.6352   14.3788   26.1573 C   0  0  0  0  0  0  0  0  0  0  0  0
    3.3447   11.9002   24.6963 N   0  0  0  0  0  0  0  0  0  0  0  0
   10.8445   14.4161   25.8162 C   0  0  0  0  0  0  0  0  0  0  0  0
   -1.3341   10.5674   26.1918 N   0  0  0  0  0  0  0  0  0  0  0  0
   10.5371   14.5761   27.1616 C   0  0  0  0  0  0  0  0  0  0  0  0
   -0.0421    9.6994   27.9227 N   0  0  0  0  0  0  0  0  0  0  0  0
    7.1974   14.4024   25.8731 C   0  0  0  0  0  0  0  0  0  0  0  0
    4.3799   14.7207   25.5286 C   0  0  0  0  0  0  0  0  0  0  0  0
    5.1009   15.6457   26.2706 C   0  0  0  0  0  0  0  0  0  0  0  0
    6.4829   15.4853   26.4420 C   0  0  0  0  0  0  0  0  0  0  0  0
    2.1552   11.7450   24.0307 C   0  0  0  0  0  0  0  0  0  0  0  0
    0.9567   11.3073   24.7886 C   0  0  0  0  0  0  0  0  0  0  0  0
    2.0304   12.0036   22.8250 O   0  0  0  0  0  0  0  0  0  0  0  0
   -0.3071   11.6434   24.2966 C   0  0  0  0  0  0  0  0  0  0  0  0
   -1.4114   11.2558   25.0260 C   0  0  0  0  0  0  0  0  0  0  0  0
    4.4643   12.5764   24.0745 C   0  0  1  0  0  0  0  0  0  0  0  0
    5.0688   13.6488   24.9693 C   0  0  0  0  0  0  0  0  0  0  0  0
    6.4764   13.4640   25.1299 C   0  0  0  0  0  0  0  0  0  0  0  0
    5.6617   11.6816   23.8301 C   0  0  0  0  0  0  0  0  0  0  0  0
    6.8322   12.2294   24.4202 C   0  0  0  0  0  0  0  0  0  0  0  0
    8.0373   11.5628   24.2428 C   0  0  0  0  0  0  0  0  0  0  0  0
    8.0694   10.3943   23.4680 C   0  0  0  0  0  0  0  0  0  0  0  0
    6.9047    9.8733   22.8881 C   0  0  0  0  0  0  0  0  0  0  0  0
    5.6848   10.5200   23.0703 C   0  0  0  0  0  0  0  0  0  0  0  0
    1.0496   10.5968   25.9823 C   0  0  0  0  0  0  0  0  0  0  0  0
   -0.1123   10.2472   26.6517 C   0  0  0  0  0  0  0  0  0  0  0  0
   14.1825   14.4889   26.0719 H   0  0  0  0  0  0  0  0  0  0  0  0
   11.4176   14.8659   29.1353 H   0  0  0  0  0  0  0  0  0  0  0  0
   12.4086   14.2516   24.3018 H   0  0  0  0  0  0  0  0  0  0  0  0
    9.4628   14.2476   24.2038 H   0  0  0  0  0  0  0  0  0  0  0  0
    3.4310   11.6887   25.6823 H   0  0  0  0  0  0  0  0  0  0  0  0
    0.7487    9.1103   28.1417 H   0  0  0  0  0  0  0  0  0  0  0  0
   -0.9476    9.3568   28.2273 H   0  0  0  0  0  0  0  0  0  0  0  0
    3.3128   14.8380   25.3801 H   0  0  0  0  0  0  0  0  0  0  0  0
    4.5969   16.4993   26.7176 H   0  0  0  0  0  0  0  0  0  0  0  0
    7.0187   16.2309   27.0312 H   0  0  0  0  0  0  0  0  0  0  0  0
   -0.4276   12.2035   23.3749 H   0  0  0  0  0  0  0  0  0  0  0  0
   -2.4178   11.5112   24.7063 H   0  0  0  0  0  0  0  0  0  0  0  0
    4.1738   13.0447   23.1273 H   0  0  0  0  0  0  0  0  0  0  0  0
    8.9618   11.9055   24.6877 H   0  0  0  0  0  0  0  0  0  0  0  0
    9.0148    9.8763   23.3135 H   0  0  0  0  0  0  0  0  0  0  0  0
    6.9519    8.9629   22.2900 H   0  0  0  0  0  0  0  0  0  0  0  0
    4.7760   10.1358   22.6130 H   0  0  0  0  0  0  0  0  0  0  0  0
    2.0069   10.2992   26.3939 H   0  0  0  0  0  0  0  0  0  0  0  0
  1  2  2  0  0  0  0
  1  5  1  0  0  0  0
  1 33  1  0  0  0  0
  2  3  1  0  0  0  0
  3 11  2  0  0  0  0
  3 34  1  0  0  0  0
  4  7  1  0  0  0  0
  4 11  1  0  0  0  0
  5  9  2  0  0  0  0
  5 35  1  0  0  0  0
  6  7  2  0  0  0  0
  6  9  1  0  0  0  0
  6 36  1  0  0  0  0
  7 13  1  0  0  0  0
  8 17  1  0  0  0  0
  8 22  1  0  0  0  0
  8 37  1  0  0  0  0
  9 11  1  0  0  0  0
 10 21  2  0  0  0  0
 10 32  1  0  0  0  0
 12 32  1  0  0  0  0
 12 38  1  0  0  0  0
 12 39  1  0  0  0  0
 13 16  2  0  0  0  0
 13 24  1  0  0  0  0
 14 15  2  0  0  0  0
 14 23  1  0  0  0  0
 14 40  1  0  0  0  0
 15 16  1  0  0  0  0
 15 41  1  0  0  0  0
 16 42  1  0  0  0  0
 17 18  1  0  0  0  0
 17 19  2  0  0  0  0
 18 20  2  0  0  0  0
 18 31  1  0  0  0  0
 20 21  1  0  0  0  0
 20 43  1  0  0  0  0
 21 44  1  0  0  0  0
 22 23  1  0  0  0  0
 22 25  1  0  0  0  0
 22 45  1  6  0  0  0
 23 24  2  0  0  0  0
 24 26  1  0  0  0  0
 25 26  2  0  0  0  0
 25 30  1  0  0  0  0
 26 27  1  0  0  0  0
 27 28  2  0  0  0  0
 27 46  1  0  0  0  0
 28 29  1  0  0  0  0
 28 47  1  0  0  0  0
 29 30  2  0  0  0  0
 29 48  1  0  0  0  0
 30 49  1  0  0  0  0
 31 32  2  0  0  0  0
 31 50  1  0  0  0  0
M  CHG  1   6   1
M  END
$$$$
