3WQ9_YUK_A_301
 OpenBabel03301717243D

 67 72  0  0  1  0  0  0  0  0999 V2000
   -5.5084  -33.9901    4.7129 O   0  0  0  0  0  0  0  0  0  0  0  0
   -5.0799  -33.6305    3.6271 C   0  0  0  0  0  0  0  0  0  0  0  0
   -5.9407  -33.1765    2.6656 N   0  0  0  0  0  0  0  0  0  0  0  0
   -3.6243  -33.6907    3.2917 C   0  0  0  0  0  0  0  0  0  0  0  0
   -2.8072  -34.6663    3.9071 C   0  0  0  0  0  0  0  0  0  0  0  0
   -3.3914  -35.7255    4.5909 N   0  0  0  0  0  0  0  0  0  0  0  0
   -2.6910  -36.5747    5.5382 C   0  0  2  0  0  0  0  0  0  0  0  0
   -3.6379  -37.7685    5.7576 C   0  0  0  0  0  0  0  0  0  0  0  0
   -4.2652  -37.7007    7.1423 C   0  0  0  0  0  0  0  0  0  0  0  0
   -3.1585  -37.7839    8.1919 C   0  0  1  0  0  0  0  0  0  0  0  0
   -2.4775  -39.0356    8.0716 O   0  0  0  0  0  0  0  0  0  0  0  0
   -2.1433  -36.6455    8.0523 C   0  0  0  0  0  0  0  0  0  0  0  0
   -2.3932  -35.7704    6.8227 C   0  0  0  0  0  0  0  0  0  0  0  0
   -1.4229  -34.6151    3.6825 C   0  0  0  0  0  0  0  0  0  0  0  0
   -0.8299  -33.6327    2.8785 C   0  0  0  0  0  0  0  0  0  0  0  0
   -1.6786  -32.7245    2.2287 C   0  0  0  0  0  0  0  0  0  0  0  0
   -3.0586  -32.7362    2.4414 C   0  0  0  0  0  0  0  0  0  0  0  0
    0.6449  -33.5671    2.7920 C   0  0  0  0  0  0  0  0  0  0  0  0
    1.2216  -34.7637    2.4891 N   0  0  0  0  0  0  0  0  0  0  0  0
    2.5619  -34.8265    2.4723 C   0  0  0  0  0  0  0  0  0  0  0  0
    3.3739  -33.7417    2.7365 C   0  0  0  0  0  0  0  0  0  0  0  0
    2.8026  -32.4850    3.0385 C   0  0  0  0  0  0  0  0  0  0  0  0
    1.3940  -32.3991    3.0941 C   0  0  0  0  0  0  0  0  0  0  0  0
    3.5527  -31.3206    3.3672 C   0  0  0  0  0  0  0  0  0  0  0  0
    2.9541  -30.1169    3.7466 C   0  0  0  0  0  0  0  0  0  0  0  0
    1.5775  -30.0373    3.7989 C   0  0  0  0  0  0  0  0  0  0  0  0
    0.8139  -31.1661    3.5008 C   0  0  0  0  0  0  0  0  0  0  0  0
    4.9634  -31.3476    3.3327 N   0  3  0  0  0  0  0  0  0  0  0  0
    5.7437  -31.6541    2.2497 C   0  0  0  0  0  0  0  0  0  0  0  0
    7.0165  -31.7123    2.5705 N   0  0  0  0  0  0  0  0  0  0  0  0
    7.0683  -31.4063    3.9129 C   0  0  0  0  0  0  0  0  0  0  0  0
    5.8063  -31.1319    4.3936 C   0  0  0  0  0  0  0  0  0  0  0  0
    8.3036  -31.4450    4.6779 C   0  0  0  0  0  0  0  0  0  0  0  0
    8.3876  -30.9250    5.9769 C   0  0  0  0  0  0  0  0  0  0  0  0
    9.5883  -30.9880    6.6884 C   0  0  0  0  0  0  0  0  0  0  0  0
   10.7182  -31.5587    6.1052 C   0  0  0  0  0  0  0  0  0  0  0  0
   10.6466  -32.0781    4.8141 C   0  0  0  0  0  0  0  0  0  0  0  0
    9.4438  -32.0219    4.1078 C   0  0  0  0  0  0  0  0  0  0  0  0
   -6.9263  -33.2192    2.8971 H   0  0  0  0  0  0  0  0  0  0  0  0
   -5.6838  -33.1206    1.6914 H   0  0  0  0  0  0  0  0  0  0  0  0
   -4.3424  -35.4894    4.9030 H   0  0  0  0  0  0  0  0  0  0  0  0
   -1.7575  -36.9674    5.1161 H   0  0  0  0  0  0  0  0  0  0  0  0
   -3.0823  -38.7040    5.6225 H   0  0  0  0  0  0  0  0  0  0  0  0
   -4.4263  -37.8088    4.9939 H   0  0  0  0  0  0  0  0  0  0  0  0
   -4.9822  -38.5160    7.2575 H   0  0  0  0  0  0  0  0  0  0  0  0
   -4.8268  -36.7615    7.2515 H   0  0  0  0  0  0  0  0  0  0  0  0
   -3.6010  -37.7721    9.1928 H   0  0  0  0  0  0  0  0  0  0  0  0
   -1.9556  -39.0296    7.2482 H   0  0  0  0  0  0  0  0  0  0  0  0
   -1.1180  -37.0299    8.0293 H   0  0  0  0  0  0  0  0  0  0  0  0
   -2.2103  -35.9999    8.9392 H   0  0  0  0  0  0  0  0  0  0  0  0
   -3.2372  -35.1015    7.0422 H   0  0  0  0  0  0  0  0  0  0  0  0
   -1.5366  -35.1017    6.6699 H   0  0  0  0  0  0  0  0  0  0  0  0
   -0.7673  -35.3444    4.1541 H   0  0  0  0  0  0  0  0  0  0  0  0
   -1.2565  -31.9653    1.5698 H   0  0  0  0  0  0  0  0  0  0  0  0
   -3.6739  -31.9654    1.9841 H   0  0  0  0  0  0  0  0  0  0  0  0
    2.9873  -35.8017    2.2520 H   0  0  0  0  0  0  0  0  0  0  0  0
    4.4481  -33.9066    2.7321 H   0  0  0  0  0  0  0  0  0  0  0  0
    3.5473  -29.2310    3.9649 H   0  0  0  0  0  0  0  0  0  0  0  0
    1.0818  -29.1081    4.0655 H   0  0  0  0  0  0  0  0  0  0  0  0
   -0.2617  -31.0637    3.6074 H   0  0  0  0  0  0  0  0  0  0  0  0
    5.3283  -31.8161    1.2642 H   0  0  0  0  0  0  0  0  0  0  0  0
    5.4335  -30.9089    5.3828 H   0  0  0  0  0  0  0  0  0  0  0  0
    7.5289  -30.4633    6.4554 H   0  0  0  0  0  0  0  0  0  0  0  0
    9.6455  -30.5756    7.6932 H   0  0  0  0  0  0  0  0  0  0  0  0
   11.6529  -31.6009    6.6558 H   0  0  0  0  0  0  0  0  0  0  0  0
   11.5233  -32.5265    4.3550 H   0  0  0  0  0  0  0  0  0  0  0  0
    9.3997  -32.4397    3.1022 H   0  0  0  0  0  0  0  0  0  0  0  0
  1  2  2  0  0  0  0
  2  3  1  0  0  0  0
  2  4  1  0  0  0  0
  3 39  1  0  0  0  0
  3 40  1  0  0  0  0
  4  5  2  0  0  0  0
  4 17  1  0  0  0  0
  5  6  1  0  0  0  0
  5 14  1  0  0  0  0
  6  7  1  0  0  0  0
  6 41  1  0  0  0  0
  7  8  1  0  0  0  0
  7 13  1  0  0  0  0
  7 42  1  6  0  0  0
  8  9  1  0  0  0  0
  8 43  1  0  0  0  0
  8 44  1  0  0  0  0
  9 10  1  0  0  0  0
  9 45  1  0  0  0  0
  9 46  1  0  0  0  0
 10 11  1  0  0  0  0
 10 12  1  0  0  0  0
 10 47  1  1  0  0  0
 11 48  1  0  0  0  0
 12 13  1  0  0  0  0
 12 49  1  0  0  0  0
 12 50  1  0  0  0  0
 13 51  1  0  0  0  0
 13 52  1  0  0  0  0
 14 15  2  0  0  0  0
 14 53  1  0  0  0  0
 15 16  1  0  0  0  0
 15 18  1  0  0  0  0
 16 17  2  0  0  0  0
 16 54  1  0  0  0  0
 17 55  1  0  0  0  0
 18 19  2  0  0  0  0
 18 23  1  0  0  0  0
 19 20  1  0  0  0  0
 20 21  2  0  0  0  0
 20 56  1  0  0  0  0
 21 22  1  0  0  0  0
 21 57  1  0  0  0  0
 22 23  2  0  0  0  0
 22 24  1  0  0  0  0
 23 27  1  0  0  0  0
 24 25  2  0  0  0  0
 24 28  1  0  0  0  0
 25 26  1  0  0  0  0
 25 58  1  0  0  0  0
 26 27  2  0  0  0  0
 26 59  1  0  0  0  0
 27 60  1  0  0  0  0
 28 29  2  0  0  0  0
 28 32  1  0  0  0  0
 29 30  1  0  0  0  0
 29 61  1  0  0  0  0
 30 31  1  0  0  0  0
 31 32  2  0  0  0  0
 31 33  1  0  0  0  0
 32 62  1  0  0  0  0
 33 34  2  0  0  0  0
 33 38  1  0  0  0  0
 34 35  1  0  0  0  0
 34 63  1  0  0  0  0
 35 36  2  0  0  0  0
 35 64  1  0  0  0  0
 36 37  1  0  0  0  0
 36 65  1  0  0  0  0
 37 38  2  0  0  0  0
 37 66  1  0  0  0  0
 38 67  1  0  0  0  0
M  CHG  1  28   1
M  END
$$$$
