2WI3_ZZ3_A_1225
 OpenBabel03301717043D

 18 18  0  0  0  0  0  0  0  0999 V2000
   29.0777   10.7649   24.5086 N   0  0  0  0  0  0  0  0  0  0  0  0
   30.2485   11.1131   23.9082 C   0  0  0  0  0  0  0  0  0  0  0  0
   31.3738   10.7280   24.4896 N   0  0  0  0  0  0  0  0  0  0  0  0
   30.1901   11.8097   22.7836 N   0  0  0  0  0  0  0  0  0  0  0  0
   31.3653   12.1198   22.2343 C   0  0  0  0  0  0  0  0  0  0  0  0
   31.3463   12.9144   20.9606 C   0  0  0  0  0  0  0  0  0  0  0  0
   32.5585   11.7757   22.7343 N   0  0  0  0  0  0  0  0  0  0  0  0
   32.4949   11.0787   23.8652 C   0  0  0  0  0  0  0  0  0  0  0  0
   34.0020   10.6519   24.7185 S   0  0  0  0  0  0  0  0  0  0  0  0
   35.1527   10.3684   23.3468 C   0  0  0  0  0  0  0  0  0  0  0  0
   28.2102   11.0547   24.0878 H   0  0  0  0  0  0  0  0  0  0  0  0
   29.1247   10.2517   25.3768 H   0  0  0  0  0  0  0  0  0  0  0  0
   30.3209   13.1235   20.6422 H   0  0  0  0  0  0  0  0  0  0  0  0
   31.8440   12.3521   20.1659 H   0  0  0  0  0  0  0  0  0  0  0  0
   31.8638   13.8680   21.0998 H   0  0  0  0  0  0  0  0  0  0  0  0
   36.1191   10.0712   23.7693 H   0  0  0  0  0  0  0  0  0  0  0  0
   35.3132   11.2758   22.7586 H   0  0  0  0  0  0  0  0  0  0  0  0
   34.8110    9.5578   22.6969 H   0  0  0  0  0  0  0  0  0  0  0  0
  1  2  1  0  0  0  0
  1 11  1  0  0  0  0
  1 12  1  0  0  0  0
  2  3  2  0  0  0  0
  2  4  1  0  0  0  0
  3  8  1  0  0  0  0
  4  5  2  0  0  0  0
  5  6  1  0  0  0  0
  5  7  1  0  0  0  0
  6 13  1  0  0  0  0
  6 14  1  0  0  0  0
  6 15  1  0  0  0  0
  7  8  2  0  0  0  0
  8  9  1  0  0  0  0
  9 10  1  0  0  0  0
 10 16  1  0  0  0  0
 10 17  1  0  0  0  0
 10 18  1  0  0  0  0
M  END
$$$$
