2WI5_ZZ5_A_1225
 OpenBabel03301717043D

 40 42  0  0  0  0  0  0  0  0999 V2000
   31.9082   11.8898   21.6091 N   0  0  0  0  0  0  0  0  0  0  0  0
   31.6684   11.3893   22.6107 C   0  0  0  0  0  0  0  0  0  0  0  0
   31.3381   10.7909   23.8711 C   0  0  0  0  0  0  0  0  0  0  0  0
   30.0390   10.9649   24.4032 C   0  0  0  0  0  0  0  0  0  0  0  0
   29.0867   11.7187   23.7183 N   0  0  0  0  0  0  0  0  0  0  0  0
   29.6615   10.4274   25.5694 N   0  0  0  0  0  0  0  0  0  0  0  0
   30.5910    9.6949   26.2333 C   0  0  0  0  0  0  0  0  0  0  0  0
   30.1791    8.9711   27.7410 S   0  0  0  0  0  0  0  0  0  0  0  0
   31.7281    8.2599   27.9603 C   0  0  0  0  0  0  0  0  0  0  0  0
   32.0333    7.4602   29.1727 C   0  0  0  0  0  0  0  0  0  0  0  0
   30.9879    7.0644   29.9885 N   0  0  0  0  0  0  0  0  0  0  0  0
   33.1676    7.1114   29.4956 O   0  0  0  0  0  0  0  0  0  0  0  0
   32.5504    8.5941   26.8717 C   0  0  0  0  0  0  0  0  0  0  0  0
   33.8346    8.1696   26.7663 N   0  0  0  0  0  0  0  0  0  0  0  0
   31.9108    9.4295   25.8374 C   0  0  0  0  0  0  0  0  0  0  0  0
   32.3232   10.0093   24.5784 C   0  0  0  0  0  0  0  0  0  0  0  0
   33.6926    9.8233   24.0117 C   0  0  0  0  0  0  0  0  0  0  0  0
   34.6079   10.8896   23.9334 C   0  0  0  0  0  0  0  0  0  0  0  0
   35.8995   10.7065   23.4315 C   0  0  0  0  0  0  0  0  0  0  0  0
   34.1258    8.5729   23.5380 C   0  0  0  0  0  0  0  0  0  0  0  0
   35.4274    8.3851   23.0397 C   0  0  0  0  0  0  0  0  0  0  0  0
   36.3130    9.4627   22.9681 C   0  0  0  0  0  0  0  0  0  0  0  0
   37.5701    9.2237   22.4820 O   0  0  0  0  0  0  0  0  0  0  0  0
   38.2296   10.3220   21.8343 C   0  0  0  0  0  0  0  0  0  0  0  0
   39.6697   10.3862   22.2952 C   0  0  0  0  0  0  0  0  0  0  0  0
   28.1583   11.8382   24.1097 H   0  0  0  0  0  0  0  0  0  0  0  0
   29.2896   12.1602   22.8256 H   0  0  0  0  0  0  0  0  0  0  0  0
   31.1716    6.5067   30.8225 H   0  0  0  0  0  0  0  0  0  0  0  0
   30.0329    7.3148   29.7710 H   0  0  0  0  0  0  0  0  0  0  0  0
   34.4425    8.4099   25.9832 H   0  0  0  0  0  0  0  0  0  0  0  0
   34.2820    7.5930   27.4846 H   0  0  0  0  0  0  0  0  0  0  0  0
   34.3222   11.8807   24.2727 H   0  0  0  0  0  0  0  0  0  0  0  0
   36.5755   11.5520   23.4138 H   0  0  0  0  0  0  0  0  0  0  0  0
   33.4424    7.7264   23.5827 H   0  0  0  0  0  0  0  0  0  0  0  0
   35.7285    7.3978   22.6934 H   0  0  0  0  0  0  0  0  0  0  0  0
   37.7699   11.2907   22.0276 H   0  0  0  0  0  0  0  0  0  0  0  0
   38.2061   10.1626   20.7521 H   0  0  0  0  0  0  0  0  0  0  0  0
   39.7109   10.5468   23.3774 H   0  0  0  0  0  0  0  0  0  0  0  0
   40.1984   11.2051   21.7955 H   0  0  0  0  0  0  0  0  0  0  0  0
   40.1794    9.4445   22.0695 H   0  0  0  0  0  0  0  0  0  0  0  0
  1  2  3  0  0  0  0
  2  3  1  0  0  0  0
  3  4  2  0  0  0  0
  3 16  1  0  0  0  0
  4  5  1  0  0  0  0
  4  6  1  0  0  0  0
  5 26  1  0  0  0  0
  5 27  1  0  0  0  0
  6  7  2  0  0  0  0
  7  8  1  0  0  0  0
  7 15  1  0  0  0  0
  8  9  1  0  0  0  0
  9 10  1  0  0  0  0
  9 13  2  0  0  0  0
 10 11  1  0  0  0  0
 10 12  2  0  0  0  0
 11 28  1  0  0  0  0
 11 29  1  0  0  0  0
 13 14  1  0  0  0  0
 13 15  1  0  0  0  0
 14 30  1  0  0  0  0
 14 31  1  0  0  0  0
 15 16  2  0  0  0  0
 16 17  1  0  0  0  0
 17 18  2  0  0  0  0
 17 20  1  0  0  0  0
 18 19  1  0  0  0  0
 18 32  1  0  0  0  0
 19 22  2  0  0  0  0
 19 33  1  0  0  0  0
 20 21  2  0  0  0  0
 20 34  1  0  0  0  0
 21 22  1  0  0  0  0
 21 35  1  0  0  0  0
 22 23  1  0  0  0  0
 23 24  1  0  0  0  0
 24 25  1  0  0  0  0
 24 36  1  0  0  0  0
 24 37  1  0  0  0  0
 25 38  1  0  0  0  0
 25 39  1  0  0  0  0
 25 40  1  0  0  0  0
M  END
$$$$
