4YKX_4ET_A_301
 OpenBabel03301717373D

 26 27  0  0  0  0  0  0  0  0999 V2000
   33.2577   12.4042   23.2283 Cl  0  0  0  0  0  0  0  0  0  0  0  0
   31.7002   11.8355   23.6894 C   0  0  0  0  0  0  0  0  0  0  0  0
   31.5568   11.1068   24.8677 C   0  0  0  0  0  0  0  0  0  0  0  0
   30.5957   12.1120   22.8822 C   0  0  0  0  0  0  0  0  0  0  0  0
   29.3265   11.6709   23.2650 C   0  0  0  0  0  0  0  0  0  0  0  0
   29.1703   10.9496   24.4485 C   0  0  0  0  0  0  0  0  0  0  0  0
   27.9101   10.5070   24.7353 O   0  0  0  0  0  0  0  0  0  0  0  0
   30.2811   10.6757   25.2486 C   0  0  0  0  0  0  0  0  0  0  0  0
   30.1149    9.8777   26.4770 C   0  0  0  0  0  0  0  0  0  0  0  0
   29.3516   10.2887   27.3435 O   0  0  0  0  0  0  0  0  0  0  0  0
   30.7399    8.5392   26.5772 C   0  0  0  0  0  0  0  0  0  0  0  0
   30.8498    7.9237   27.8331 C   0  0  0  0  0  0  0  0  0  0  0  0
   31.3462    6.6193   27.9282 C   0  0  0  0  0  0  0  0  0  0  0  0
   31.1186    7.8347   25.4267 C   0  0  0  0  0  0  0  0  0  0  0  0
   31.6030    6.5302   25.5227 C   0  0  0  0  0  0  0  0  0  0  0  0
   31.7182    5.9368   26.7740 C   0  0  0  0  0  0  0  0  0  0  0  0
   32.2076    4.6667   26.8970 O   0  0  0  0  0  0  0  0  0  0  0  0
   32.4260   10.8680   25.4735 H   0  0  0  0  0  0  0  0  0  0  0  0
   30.7152   12.6650   21.9539 H   0  0  0  0  0  0  0  0  0  0  0  0
   28.4624   11.8829   22.6393 H   0  0  0  0  0  0  0  0  0  0  0  0
   27.9068   10.1045   25.6268 H   0  0  0  0  0  0  0  0  0  0  0  0
   30.5450    8.4528   28.7338 H   0  0  0  0  0  0  0  0  0  0  0  0
   31.4254    6.1358   28.9000 H   0  0  0  0  0  0  0  0  0  0  0  0
   31.0164    8.2673   24.4372 H   0  0  0  0  0  0  0  0  0  0  0  0
   31.8536    5.9902   24.6176 H   0  0  0  0  0  0  0  0  0  0  0  0
   32.5047    4.3573   26.0323 H   0  0  0  0  0  0  0  0  0  0  0  0
  1  2  1  0  0  0  0
  2  3  2  0  0  0  0
  2  4  1  0  0  0  0
  3  8  1  0  0  0  0
  3 18  1  0  0  0  0
  4  5  2  0  0  0  0
  4 19  1  0  0  0  0
  5  6  1  0  0  0  0
  5 20  1  0  0  0  0
  6  7  1  0  0  0  0
  6  8  2  0  0  0  0
  7 21  1  0  0  0  0
  8  9  1  0  0  0  0
  9 10  2  0  0  0  0
  9 11  1  0  0  0  0
 11 12  2  0  0  0  0
 11 14  1  0  0  0  0
 12 13  1  0  0  0  0
 12 22  1  0  0  0  0
 13 16  2  0  0  0  0
 13 23  1  0  0  0  0
 14 15  2  0  0  0  0
 14 24  1  0  0  0  0
 15 16  1  0  0  0  0
 15 25  1  0  0  0  0
 16 17  1  0  0  0  0
 17 26  1  0  0  0  0
M  END
$$$$
