4O09_2R6_A_4000
 OpenBabel03301717343D

 58 61  0  0  1  0  0  0  0  0999 V2000
   -1.1667  -10.6501  -26.4234 O   0  0  0  0  0  0  0  0  0  0  0  0
   -0.7719  -11.1010  -25.3793 C   0  0  0  0  0  0  0  0  0  0  0  0
   -1.6076  -11.8605  -24.5706 N   0  0  0  0  0  0  0  0  0  0  0  0
   -1.2122  -12.5422  -23.3578 C   0  0  0  0  0  0  0  0  0  0  0  0
    0.2119  -13.0449  -23.4795 C   0  0  0  0  0  0  0  0  0  0  0  0
    1.1217  -11.9497  -23.9950 C   0  0  0  0  0  0  0  0  0  0  0  0
    2.4652  -11.9531  -23.5946 C   0  0  0  0  0  0  0  0  0  0  0  0
    0.6483  -10.9557  -24.8875 C   0  0  0  0  0  0  0  0  0  0  0  0
    1.5150   -9.9125  -25.2975 C   0  0  0  0  0  0  0  0  0  0  0  0
    1.1533   -8.7169  -26.1495 C   0  0  0  0  0  0  0  0  0  0  0  0
    0.3991   -7.5714  -25.4639 C   0  0  0  0  0  0  0  0  0  0  0  0
    0.1483   -6.4583  -26.4843 C   0  0  0  0  0  0  0  0  0  0  0  0
    1.0997   -6.9763  -24.2519 C   0  0  0  0  0  0  0  0  0  0  0  0
    2.8576   -9.9420  -24.8681 C   0  0  0  0  0  0  0  0  0  0  0  0
    3.3290  -10.9576  -24.0421 C   0  0  0  0  0  0  0  0  0  0  0  0
    4.7113  -10.9856  -23.7266 N   0  3  0  0  0  0  0  0  0  0  0  0
    5.4483   -9.9111  -23.2739 C   0  0  0  0  0  0  0  0  0  0  0  0
    5.6004  -11.9981  -24.0433 C   0  0  1  0  0  0  0  0  0  0  0  0
    5.2471  -13.3255  -24.6415 C   0  0  0  0  0  0  0  0  0  0  0  0
    6.4242  -13.9915  -25.3848 C   0  0  0  0  0  0  0  0  0  0  0  0
    6.6144  -13.3665  -26.7661 C   0  0  0  0  0  0  0  0  0  0  0  0
    6.1067  -15.4820  -25.5875 C   0  0  0  0  0  0  0  0  0  0  0  0
    7.7104  -13.8617  -24.5622 C   0  0  0  0  0  0  0  0  0  0  0  0
    8.0256  -12.4366  -24.1101 C   0  0  0  0  0  0  0  0  0  0  0  0
    9.1982  -12.0787  -23.9746 O   0  0  0  0  0  0  0  0  0  0  0  0
    6.8934  -11.5570  -23.8088 C   0  0  1  0  0  0  0  0  0  0  0  0
    6.7977  -10.2140  -23.3329 C   0  0  1  0  0  0  0  0  0  0  0  0
    7.8737   -9.2555  -22.9615 C   0  0  0  0  0  0  0  0  0  0  0  0
   -2.5612  -11.9217  -24.8972 H   0  0  0  0  0  0  0  0  0  0  0  0
   -1.8958  -13.3833  -23.1939 H   0  0  0  0  0  0  0  0  0  0  0  0
   -1.3041  -11.8537  -22.5109 H   0  0  0  0  0  0  0  0  0  0  0  0
    0.2334  -13.9009  -24.1649 H   0  0  0  0  0  0  0  0  0  0  0  0
    0.5519  -13.3795  -22.4913 H   0  0  0  0  0  0  0  0  0  0  0  0
    2.8201  -12.7122  -22.9050 H   0  0  0  0  0  0  0  0  0  0  0  0
    0.5580   -9.0604  -26.9974 H   0  0  0  0  0  0  0  0  0  0  0  0
    2.0850   -8.2978  -26.5633 H   0  0  0  0  0  0  0  0  0  0  0  0
   -0.5544   -7.9722  -25.1184 H   0  0  0  0  0  0  0  0  0  0  0  0
    1.0967   -6.0330  -26.8417 H   0  0  0  0  0  0  0  0  0  0  0  0
   -0.4423   -5.6501  -26.0378 H   0  0  0  0  0  0  0  0  0  0  0  0
   -0.3991   -6.8491  -27.3500 H   0  0  0  0  0  0  0  0  0  0  0  0
    2.0543   -6.5168  -24.5297 H   0  0  0  0  0  0  0  0  0  0  0  0
    1.2824   -7.7518  -23.5055 H   0  0  0  0  0  0  0  0  0  0  0  0
    0.4677   -6.2054  -23.7906 H   0  0  0  0  0  0  0  0  0  0  0  0
    3.5412   -9.1673  -25.2246 H   0  0  0  0  0  0  0  0  0  0  0  0
    4.9949   -8.9836  -22.9415 H   0  0  0  0  0  0  0  0  0  0  0  0
    4.4255  -13.2063  -25.3487 H   0  0  0  0  0  0  0  0  0  0  0  0
    4.9412  -13.9921  -23.8299 H   0  0  0  0  0  0  0  0  0  0  0  0
    5.7028  -13.4763  -27.3660 H   0  0  0  0  0  0  0  0  0  0  0  0
    7.4392  -13.8492  -27.3046 H   0  0  0  0  0  0  0  0  0  0  0  0
    6.8388  -12.3023  -26.6701 H   0  0  0  0  0  0  0  0  0  0  0  0
    5.1916  -15.6039  -26.1807 H   0  0  0  0  0  0  0  0  0  0  0  0
    5.9561  -15.9759  -24.6195 H   0  0  0  0  0  0  0  0  0  0  0  0
    6.9270  -15.9924  -26.1090 H   0  0  0  0  0  0  0  0  0  0  0  0
    8.5574  -14.2154  -25.1638 H   0  0  0  0  0  0  0  0  0  0  0  0
    7.6274  -14.4963  -23.6697 H   0  0  0  0  0  0  0  0  0  0  0  0
    7.4488   -8.2985  -22.6167 H   0  0  0  0  0  0  0  0  0  0  0  0
    8.5099   -9.0457  -23.8249 H   0  0  0  0  0  0  0  0  0  0  0  0
    8.4837   -9.6627  -22.1521 H   0  0  0  0  0  0  0  0  0  0  0  0
  1  2  2  0  0  0  0
  2  3  1  0  0  0  0
  2  8  1  0  0  0  0
  3  4  1  0  0  0  0
  3 29  1  0  0  0  0
  4  5  1  0  0  0  0
  4 30  1  0  0  0  0
  4 31  1  0  0  0  0
  5  6  1  0  0  0  0
  5 32  1  0  0  0  0
  5 33  1  0  0  0  0
  6  7  2  0  0  0  0
  6  8  1  0  0  0  0
  7 15  1  0  0  0  0
  7 34  1  0  0  0  0
  8  9  2  0  0  0  0
  9 10  1  0  0  0  0
  9 14  1  0  0  0  0
 10 11  1  0  0  0  0
 10 35  1  0  0  0  0
 10 36  1  0  0  0  0
 11 12  1  0  0  0  0
 11 13  1  0  0  0  0
 11 37  1  0  0  0  0
 12 38  1  0  0  0  0
 12 39  1  0  0  0  0
 12 40  1  0  0  0  0
 13 41  1  0  0  0  0
 13 42  1  0  0  0  0
 13 43  1  0  0  0  0
 14 15  2  0  0  0  0
 14 44  1  0  0  0  0
 15 16  1  0  0  0  0
 16 17  1  0  0  0  0
 17 27  1  0  0  0  0
 17 45  1  0  0  0  0
 18 16  1  6  0  0  0
 18 19  1  0  0  0  0
 18 26  1  0  0  0  0
 19 20  1  0  0  0  0
 19 46  1  0  0  0  0
 19 47  1  0  0  0  0
 20 21  1  0  0  0  0
 20 22  1  0  0  0  0
 20 23  1  0  0  0  0
 21 48  1  0  0  0  0
 21 49  1  0  0  0  0
 21 50  1  0  0  0  0
 22 51  1  0  0  0  0
 22 52  1  0  0  0  0
 22 53  1  0  0  0  0
 23 24  1  0  0  0  0
 23 54  1  0  0  0  0
 23 55  1  0  0  0  0
 24 25  2  0  0  0  0
 26 24  1  6  0  0  0
 26 27  1  0  0  0  0
 27 28  1  6  0  0  0
 28 56  1  0  0  0  0
 28 57  1  0  0  0  0
 28 58  1  0  0  0  0
M  CHG  1  16   1
M  END
$$$$
