006
 OpenBabel04091913253D

 86 90  0  0  1  0  0  0  0  0999 V2000
   16.1782   19.6727   18.2842 O   0  0  0  0  0  0  0  0  0  0  0  0
   14.9625   19.8304   18.3228 C   0  0  0  0  0  0  0  0  0  0  0  0
   14.0511   18.6626   18.6774 C   0  0  0  0  0  0  0  0  0  0  0  0
   12.8053   19.0736   19.2369 O   0  0  0  0  0  0  0  0  0  0  0  0
   11.9665   17.9887   19.3631 C   0  0  0  0  0  0  0  0  0  0  0  0
   11.9365   17.2680   20.5761 C   0  0  0  0  0  0  0  0  0  0  0  0
   12.8209   17.5983   21.7461 C   0  0  0  0  0  0  0  0  0  0  0  0
   11.0325   16.2013   20.7045 C   0  0  0  0  0  0  0  0  0  0  0  0
   10.1714   15.8657   19.6612 C   0  0  0  0  0  0  0  0  0  0  0  0
   10.2015   16.5944   18.4751 C   0  0  0  0  0  0  0  0  0  0  0  0
   11.0890   17.6666   18.3085 C   0  0  0  0  0  0  0  0  0  0  0  0
   11.0518   18.4154   17.0041 C   0  0  0  0  0  0  0  0  0  0  0  0
   14.3492   21.0161   18.0158 N   0  0  0  0  0  0  0  0  0  0  0  0
   15.1411   22.1760   17.5935 C   0  0  1  0  0  0  0  0  0  0  0  0
   14.5603   22.8277   16.3235 C   0  0  0  0  0  0  0  0  0  0  0  0
   14.3152   21.7944   15.2501 C   0  0  0  0  0  0  0  0  0  0  0  0
   15.3816   21.2793   14.5041 C   0  0  0  0  0  0  0  0  0  0  0  0
   15.1573   20.2714   13.5691 C   0  0  0  0  0  0  0  0  0  0  0  0
   13.8713   19.7645   13.3808 C   0  0  0  0  0  0  0  0  0  0  0  0
   12.8069   20.2638   14.1296 C   0  0  0  0  0  0  0  0  0  0  0  0
   13.0270   21.2755   15.0602 C   0  0  0  0  0  0  0  0  0  0  0  0
   15.2524   23.1487   18.7730 C   0  0  2  0  0  0  0  0  0  0  0  0
   14.0889   23.9656   18.8713 O   0  0  0  0  0  0  0  0  0  0  0  0
   16.5591   23.9314   18.6472 C   0  0  0  0  0  0  0  0  0  0  0  0
   16.6216   24.9842   18.0053 O   0  0  0  0  0  0  0  0  0  0  0  0
   17.6483   23.4355   19.3370 N   0  0  0  0  0  0  0  0  0  0  0  0
   17.7259   22.1393   19.9888 C   0  0  0  0  0  0  0  0  0  0  0  0
   19.4008   21.9114   20.5845 S   0  0  0  0  0  0  0  0  0  0  0  0
   19.7625   23.6950   20.5273 C   0  0  0  0  0  0  0  0  0  0  0  0
   21.2662   23.8834   20.3470 C   0  0  0  0  0  0  0  0  0  0  0  0
   19.2926   24.3105   21.8513 C   0  0  0  0  0  0  0  0  0  0  0  0
   18.8682   24.2341   19.3924 C   0  0  1  0  0  0  0  0  0  0  0  0
   19.5656   24.2324   18.0218 C   0  0  0  0  0  0  0  0  0  0  0  0
   19.6174   23.2557   17.2910 O   0  0  0  0  0  0  0  0  0  0  0  0
   20.2137   25.4122   17.7593 N   0  0  0  0  0  0  0  0  0  0  0  0
   21.0852   25.5690   16.6253 C   0  0  1  0  0  0  0  0  0  0  0  0
   20.4342   26.2001   15.4294 C   0  0  0  0  0  0  0  0  0  0  0  0
   19.2033   25.8992   14.8647 C   0  0  0  0  0  0  0  0  0  0  0  0
   18.8132   26.5907   13.7188 C   0  0  0  0  0  0  0  0  0  0  0  0
   19.6537   27.5536   13.1472 C   0  0  0  0  0  0  0  0  0  0  0  0
   20.9032   27.8420   13.7056 C   0  0  0  0  0  0  0  0  0  0  0  0
   21.2773   27.1633   14.8530 C   0  0  0  0  0  0  0  0  0  0  0  0
   22.5609   27.2876   15.6196 C   0  0  0  0  0  0  0  0  0  0  0  0
   22.1967   26.6026   16.9469 C   0  0  1  0  0  0  0  0  0  0  0  0
   21.7130   27.5824   17.8948 O   0  0  0  0  0  0  0  0  0  0  0  0
   14.6042   18.0669   19.4132 H   0  0  0  0  0  0  0  0  0  0  0  0
   13.9195   18.0834   17.7553 H   0  0  0  0  0  0  0  0  0  0  0  0
   12.6475   16.9059   22.5800 H   0  0  0  0  0  0  0  0  0  0  0  0
   12.6179   18.6073   22.1139 H   0  0  0  0  0  0  0  0  0  0  0  0
   13.8763   17.5049   21.4782 H   0  0  0  0  0  0  0  0  0  0  0  0
   10.9825   15.6308   21.6305 H   0  0  0  0  0  0  0  0  0  0  0  0
    9.4710   15.0437   19.7811 H   0  0  0  0  0  0  0  0  0  0  0  0
    9.5124   16.3250   17.6756 H   0  0  0  0  0  0  0  0  0  0  0  0
   11.7705   19.2365   16.9735 H   0  0  0  0  0  0  0  0  0  0  0  0
   10.0577   18.8435   16.8347 H   0  0  0  0  0  0  0  0  0  0  0  0
   11.2852   17.7382   16.1745 H   0  0  0  0  0  0  0  0  0  0  0  0
   13.3509   21.1171   18.1560 H   0  0  0  0  0  0  0  0  0  0  0  0
   16.1454   21.8145   17.3350 H   0  0  0  0  0  0  0  0  0  0  0  0
   15.2534   23.5875   15.9373 H   0  0  0  0  0  0  0  0  0  0  0  0
   13.6215   23.3509   16.5367 H   0  0  0  0  0  0  0  0  0  0  0  0
   16.3934   21.6481   14.6631 H   0  0  0  0  0  0  0  0  0  0  0  0
   15.9892   19.8784   12.9909 H   0  0  0  0  0  0  0  0  0  0  0  0
   13.7010   18.9781   12.6530 H   0  0  0  0  0  0  0  0  0  0  0  0
   11.8072   19.8629   13.9907 H   0  0  0  0  0  0  0  0  0  0  0  0
   12.1956   21.6447   15.6569 H   0  0  0  0  0  0  0  0  0  0  0  0
   15.2784   22.5887   19.7119 H   0  0  0  0  0  0  0  0  0  0  0  0
   14.2515   24.6033   19.5891 H   0  0  0  0  0  0  0  0  0  0  0  0
   17.4465   21.3474   19.3026 H   0  0  0  0  0  0  0  0  0  0  0  0
   17.0494   22.1419   20.8489 H   0  0  0  0  0  0  0  0  0  0  0  0
   21.5228   24.9475   20.3290 H   0  0  0  0  0  0  0  0  0  0  0  0
   21.6345   23.4346   19.4168 H   0  0  0  0  0  0  0  0  0  0  0  0
   21.8270   23.4236   21.1690 H   0  0  0  0  0  0  0  0  0  0  0  0
   19.5145   25.3831   21.8663 H   0  0  0  0  0  0  0  0  0  0  0  0
   19.7829   23.8515   22.7153 H   0  0  0  0  0  0  0  0  0  0  0  0
   18.2077   24.2104   21.9843 H   0  0  0  0  0  0  0  0  0  0  0  0
   18.5718   25.2710   19.6082 H   0  0  0  0  0  0  0  0  0  0  0  0
   19.9795   26.2680   18.2484 H   0  0  0  0  0  0  0  0  0  0  0  0
   21.5226   24.6083   16.3322 H   0  0  0  0  0  0  0  0  0  0  0  0
   18.5554   25.1466   15.3053 H   0  0  0  0  0  0  0  0  0  0  0  0
   17.8466   26.3794   13.2679 H   0  0  0  0  0  0  0  0  0  0  0  0
   19.3281   28.0884   12.2562 H   0  0  0  0  0  0  0  0  0  0  0  0
   21.5493   28.5871   13.2549 H   0  0  0  0  0  0  0  0  0  0  0  0
   22.8366   28.3456   15.7572 H   0  0  0  0  0  0  0  0  0  0  0  0
   23.3609   26.7482   15.1034 H   0  0  0  0  0  0  0  0  0  0  0  0
   23.0595   26.1211   17.4212 H   0  0  0  0  0  0  0  0  0  0  0  0
   22.4049   28.2585   17.9832 H   0  0  0  0  0  0  0  0  0  0  0  0
  1  2  2  0  0  0  0
  2  3  1  0  0  0  0
  2 13  1  0  0  0  0
  3  4  1  0  0  0  0
  3 46  1  0  0  0  0
  3 47  1  0  0  0  0
  4  5  1  0  0  0  0
  5  6  2  0  0  0  0
  5 11  1  0  0  0  0
  6  7  1  0  0  0  0
  6  8  1  0  0  0  0
  7 48  1  0  0  0  0
  7 49  1  0  0  0  0
  7 50  1  0  0  0  0
  8  9  2  0  0  0  0
  8 51  1  0  0  0  0
  9 10  1  0  0  0  0
  9 52  1  0  0  0  0
 10 11  2  0  0  0  0
 10 53  1  0  0  0  0
 11 12  1  0  0  0  0
 12 54  1  0  0  0  0
 12 55  1  0  0  0  0
 12 56  1  0  0  0  0
 13 14  1  0  0  0  0
 13 57  1  0  0  0  0
 14 15  1  0  0  0  0
 14 22  1  0  0  0  0
 14 58  1  6  0  0  0
 15 16  1  0  0  0  0
 15 59  1  0  0  0  0
 15 60  1  0  0  0  0
 16 17  2  0  0  0  0
 16 21  1  0  0  0  0
 17 18  1  0  0  0  0
 17 61  1  0  0  0  0
 18 19  2  0  0  0  0
 18 62  1  0  0  0  0
 19 20  1  0  0  0  0
 19 63  1  0  0  0  0
 20 21  2  0  0  0  0
 20 64  1  0  0  0  0
 21 65  1  0  0  0  0
 22 23  1  0  0  0  0
 22 24  1  0  0  0  0
 22 66  1  1  0  0  0
 23 67  1  0  0  0  0
 24 25  2  0  0  0  0
 24 26  1  0  0  0  0
 26 27  1  0  0  0  0
 26 32  1  0  0  0  0
 27 28  1  0  0  0  0
 27 68  1  0  0  0  0
 27 69  1  0  0  0  0
 28 29  1  0  0  0  0
 29 30  1  0  0  0  0
 29 31  1  0  0  0  0
 29 32  1  0  0  0  0
 30 70  1  0  0  0  0
 30 71  1  0  0  0  0
 30 72  1  0  0  0  0
 31 73  1  0  0  0  0
 31 74  1  0  0  0  0
 31 75  1  0  0  0  0
 32 33  1  0  0  0  0
 32 76  1  1  0  0  0
 33 34  2  0  0  0  0
 33 35  1  0  0  0  0
 35 36  1  0  0  0  0
 35 77  1  0  0  0  0
 36 37  1  0  0  0  0
 36 44  1  0  0  0  0
 36 78  1  6  0  0  0
 37 38  2  0  0  0  0
 37 42  1  0  0  0  0
 38 39  1  0  0  0  0
 38 79  1  0  0  0  0
 39 40  2  0  0  0  0
 39 80  1  0  0  0  0
 40 41  1  0  0  0  0
 40 81  1  0  0  0  0
 41 42  2  0  0  0  0
 41 82  1  0  0  0  0
 42 43  1  0  0  0  0
 43 44  1  0  0  0  0
 43 83  1  0  0  0  0
 43 84  1  0  0  0  0
 44 45  1  0  0  0  0
 44 85  1  1  0  0  0
 45 86  1  0  0  0  0
M  END
$$$$
