012
 OpenBabel04091911143D

 80 83  0  0  1  0  0  0  0  0999 V2000
   30.1118    7.3926   10.4769 C   0  0  0  0  0  0  0  0  0  0  0  0
   31.2575    7.8303   10.5624 O   0  0  0  0  0  0  0  0  0  0  0  0
   29.7659    6.1221   10.0921 N   0  0  0  0  0  0  0  0  0  0  0  0
   30.7165    5.0646    9.8196 C   0  0  1  0  0  0  0  0  0  0  0  0
   30.7814    4.0780   11.0029 C   0  0  0  0  0  0  0  0  0  0  0  0
   31.1397    4.7556   12.3064 C   0  0  0  0  0  0  0  0  0  0  0  0
   30.1917    4.8837   13.3298 C   0  0  0  0  0  0  0  0  0  0  0  0
   32.4168    5.3053   12.4978 C   0  0  0  0  0  0  0  0  0  0  0  0
   30.5167    5.5435   14.5194 C   0  0  0  0  0  0  0  0  0  0  0  0
   32.7368    5.9694   13.6871 C   0  0  0  0  0  0  0  0  0  0  0  0
   31.7882    6.0901   14.6994 C   0  0  0  0  0  0  0  0  0  0  0  0
   30.3020    4.3576    8.5084 C   0  0  2  0  0  0  0  0  0  0  0  0
   31.2285    3.3344    8.1498 O   0  0  0  0  0  0  0  0  0  0  0  0
   30.2459    5.3880    7.3629 C   0  0  0  0  0  0  0  0  0  0  0  0
   30.3029    4.7223    6.0196 N   0  3  0  0  0  0  0  0  0  0  0  0
   30.7730    5.5973    4.8982 C   0  0  0  0  0  0  0  0  0  0  0  0
   32.1926    6.0492    5.0704 C   0  0  0  0  0  0  0  0  0  0  0  0
   32.4961    7.3792    5.3691 C   0  0  0  0  0  0  0  0  0  0  0  0
   33.8228    7.7664    5.5563 C   0  0  0  0  0  0  0  0  0  0  0  0
   34.8496    6.8168    5.4521 C   0  0  0  0  0  0  0  0  0  0  0  0
   34.5870    5.4664    5.1563 C   0  0  0  0  0  0  0  0  0  0  0  0
   33.2364    5.1190    4.9777 C   0  0  0  0  0  0  0  0  0  0  0  0
   35.5926    4.5188    5.0508 N   0  0  0  0  0  0  0  0  0  0  0  0
   36.9589    4.8281    5.4636 C   0  0  0  0  0  0  0  0  0  0  0  0
   35.3595    3.1850    4.5147 C   0  0  0  0  0  0  0  0  0  0  0  0
   28.9199    8.2512   10.8030 C   0  0  1  0  0  0  0  0  0  0  0  0
   27.6900    7.7343   10.2978 N   0  0  0  0  0  0  0  0  0  0  0  0
   26.6885    8.2261   11.1444 C   0  0  0  0  0  0  0  0  0  0  0  0
   25.5343    8.0527   10.8959 O   0  0  0  0  0  0  0  0  0  0  0  0
   27.2462    8.6585   12.3411 N   0  0  0  0  0  0  0  0  0  0  0  0
   28.6403    8.3375   12.2951 C   0  0  0  0  0  0  0  0  0  0  0  0
   26.4460    8.5589   13.5608 C   0  0  0  0  0  0  0  0  0  0  0  0
   26.5779    7.2258   14.2924 C   0  0  0  0  0  0  0  0  0  0  0  0
   26.0070    6.0510   13.7585 C   0  0  0  0  0  0  0  0  0  0  0  0
   26.1219    4.8226   14.4181 C   0  0  0  0  0  0  0  0  0  0  0  0
   26.7769    4.7600   15.6530 C   0  0  0  0  0  0  0  0  0  0  0  0
   27.3353    5.9262   16.2095 C   0  0  0  0  0  0  0  0  0  0  0  0
   27.2456    7.1504   15.5280 C   0  0  0  0  0  0  0  0  0  0  0  0
   25.4916    3.7363   13.8583 O   0  0  0  0  0  0  0  0  0  0  0  0
   26.4019    2.8109   13.2598 C   0  0  0  0  0  0  0  0  0  0  0  0
   28.7787    5.8842   10.1475 H   0  0  0  0  0  0  0  0  0  0  0  0
   31.7130    5.5007    9.6696 H   0  0  0  0  0  0  0  0  0  0  0  0
   31.5224    3.2936   10.7994 H   0  0  0  0  0  0  0  0  0  0  0  0
   29.8079    3.5753   11.1027 H   0  0  0  0  0  0  0  0  0  0  0  0
   29.1897    4.4768   13.2096 H   0  0  0  0  0  0  0  0  0  0  0  0
   33.1693    5.2297   11.7148 H   0  0  0  0  0  0  0  0  0  0  0  0
   29.7846    5.6340   15.3135 H   0  0  0  0  0  0  0  0  0  0  0  0
   33.7318    6.3928   13.8254 H   0  0  0  0  0  0  0  0  0  0  0  0
   32.0371    6.6022   15.6305 H   0  0  0  0  0  0  0  0  0  0  0  0
   29.3076    3.9027    8.6149 H   0  0  0  0  0  0  0  0  0  0  0  0
   31.2587    2.6983    8.8930 H   0  0  0  0  0  0  0  0  0  0  0  0
   31.0979    6.0629    7.4373 H   0  0  0  0  0  0  0  0  0  0  0  0
   29.3077    5.9474    7.3996 H   0  0  0  0  0  0  0  0  0  0  0  0
   30.9560    3.9258    6.1055 H   0  0  0  0  0  0  0  0  0  0  0  0
   30.0862    6.4478    4.8462 H   0  0  0  0  0  0  0  0  0  0  0  0
   30.6665    5.0138    3.9727 H   0  0  0  0  0  0  0  0  0  0  0  0
   31.7053    8.1208    5.4567 H   0  0  0  0  0  0  0  0  0  0  0  0
   34.0621    8.8081    5.7797 H   0  0  0  0  0  0  0  0  0  0  0  0
   35.8759    7.1596    5.5962 H   0  0  0  0  0  0  0  0  0  0  0  0
   32.9572    4.0916    4.7639 H   0  0  0  0  0  0  0  0  0  0  0  0
   37.6262    3.9710    5.3115 H   0  0  0  0  0  0  0  0  0  0  0  0
   36.9858    5.0848    6.5292 H   0  0  0  0  0  0  0  0  0  0  0  0
   37.3643    5.6658    4.8865 H   0  0  0  0  0  0  0  0  0  0  0  0
   34.3302    3.0220    4.2063 H   0  0  0  0  0  0  0  0  0  0  0  0
   35.5876    2.4188    5.2603 H   0  0  0  0  0  0  0  0  0  0  0  0
   35.9615    3.0065    3.6208 H   0  0  0  0  0  0  0  0  0  0  0  0
   29.0522    9.2533   10.3807 H   0  0  0  0  0  0  0  0  0  0  0  0
   27.5143    7.2080    9.4333 H   0  0  0  0  0  0  0  0  0  0  0  0
   29.2710    9.0662   12.8021 H   0  0  0  0  0  0  0  0  0  0  0  0
   28.7265    7.3603   12.7680 H   0  0  0  0  0  0  0  0  0  0  0  0
   25.3842    8.6928   13.3109 H   0  0  0  0  0  0  0  0  0  0  0  0
   26.7322    9.3632   14.2530 H   0  0  0  0  0  0  0  0  0  0  0  0
   25.4682    6.1000   12.8147 H   0  0  0  0  0  0  0  0  0  0  0  0
   26.8597    3.8215   16.1974 H   0  0  0  0  0  0  0  0  0  0  0  0
   27.8647    5.8798   17.1674 H   0  0  0  0  0  0  0  0  0  0  0  0
   27.6871    8.0465   15.9740 H   0  0  0  0  0  0  0  0  0  0  0  0
   25.8389    1.9771   12.8090 H   0  0  0  0  0  0  0  0  0  0  0  0
   27.0780    2.3922   14.0092 H   0  0  0  0  0  0  0  0  0  0  0  0
   26.9751    3.2901   12.4578 H   0  0  0  0  0  0  0  0  0  0  0  0
   29.3828    4.3336    5.7908 H   0  0  0  0  0  0  0  0  0  0  0  0
  1  2  2  0  0  0  0
  1  3  1  0  0  0  0
  1 26  1  0  0  0  0
  3  4  1  0  0  0  0
  3 41  1  0  0  0  0
  4  5  1  0  0  0  0
  4 12  1  0  0  0  0
  4 42  1  6  0  0  0
  5  6  1  0  0  0  0
  5 43  1  0  0  0  0
  5 44  1  0  0  0  0
  6  7  2  0  0  0  0
  6  8  1  0  0  0  0
  7  9  1  0  0  0  0
  7 45  1  0  0  0  0
  8 10  2  0  0  0  0
  8 46  1  0  0  0  0
  9 11  2  0  0  0  0
  9 47  1  0  0  0  0
 10 11  1  0  0  0  0
 10 48  1  0  0  0  0
 11 49  1  0  0  0  0
 12 13  1  0  0  0  0
 12 14  1  0  0  0  0
 12 50  1  1  0  0  0
 13 51  1  0  0  0  0
 14 15  1  0  0  0  0
 14 52  1  0  0  0  0
 14 53  1  0  0  0  0
 15 16  1  0  0  0  0
 15 54  1  0  0  0  0
 15 80  1  0  0  0  0
 16 17  1  0  0  0  0
 16 55  1  0  0  0  0
 16 56  1  0  0  0  0
 17 18  2  0  0  0  0
 17 22  1  0  0  0  0
 18 19  1  0  0  0  0
 18 57  1  0  0  0  0
 19 20  2  0  0  0  0
 19 58  1  0  0  0  0
 20 21  1  0  0  0  0
 20 59  1  0  0  0  0
 21 22  2  0  0  0  0
 21 23  1  0  0  0  0
 22 60  1  0  0  0  0
 23 24  1  0  0  0  0
 23 25  1  0  0  0  0
 24 61  1  0  0  0  0
 24 62  1  0  0  0  0
 24 63  1  0  0  0  0
 25 64  1  0  0  0  0
 25 65  1  0  0  0  0
 25 66  1  0  0  0  0
 26 27  1  0  0  0  0
 26 31  1  0  0  0  0
 26 67  1  6  0  0  0
 27 28  1  0  0  0  0
 27 68  1  0  0  0  0
 28 29  2  0  0  0  0
 28 30  1  0  0  0  0
 30 31  1  0  0  0  0
 30 32  1  0  0  0  0
 31 69  1  0  0  0  0
 31 70  1  0  0  0  0
 32 33  1  0  0  0  0
 32 71  1  0  0  0  0
 32 72  1  0  0  0  0
 33 34  2  0  0  0  0
 33 38  1  0  0  0  0
 34 35  1  0  0  0  0
 34 73  1  0  0  0  0
 35 36  2  0  0  0  0
 35 39  1  0  0  0  0
 36 37  1  0  0  0  0
 36 74  1  0  0  0  0
 37 38  2  0  0  0  0
 37 75  1  0  0  0  0
 38 76  1  0  0  0  0
 39 40  1  0  0  0  0
 40 77  1  0  0  0  0
 40 78  1  0  0  0  0
 40 79  1  0  0  0  0
M  CHG  1  15   1
M  END
$$$$
