017
 OpenBabel04091911193D

 75 78  0  0  1  0  0  0  0  0999 V2000
   21.0788   28.9316   14.0647 N   0  0  0  0  0  0  0  0  0  0  0  0
   20.4773   27.7512   14.4491 C   0  0  0  0  0  0  0  0  0  0  0  0
   19.1657   27.4897   14.0361 C   0  0  0  0  0  0  0  0  0  0  0  0
   18.5195   26.3122   14.4174 C   0  0  0  0  0  0  0  0  0  0  0  0
   19.1941   25.3887   15.2344 C   0  0  0  0  0  0  0  0  0  0  0  0
   20.5125   25.6425   15.6612 C   0  0  0  0  0  0  0  0  0  0  0  0
   21.1610   26.8177   15.2430 C   0  0  0  0  0  0  0  0  0  0  0  0
   18.3048   23.9195   15.8183 S   0  0  0  0  0  0  0  0  0  0  0  0
   17.1619   23.7583   14.9368 O   0  0  0  0  0  0  0  0  0  0  0  0
   19.2668   22.8533   15.9900 O   0  0  0  0  0  0  0  0  0  0  0  0
   17.6900   24.3417   17.3887 N   0  0  0  0  0  0  0  0  0  0  0  0
   18.6621   24.6735   18.4739 C   0  0  0  0  0  0  0  0  0  0  0  0
   18.2642   24.0614   19.8334 C   0  0  0  0  0  0  0  0  0  0  0  0
   18.1134   22.5461   19.7316 C   0  0  0  0  0  0  0  0  0  0  0  0
   19.3717   24.3887   20.8311 C   0  0  0  0  0  0  0  0  0  0  0  0
   16.3983   25.0804   17.4263 C   0  0  0  0  0  0  0  0  0  0  0  0
   15.2584   24.1888   17.9597 C   0  0  1  0  0  0  0  0  0  0  0  0
   14.0831   24.9930   18.1991 O   0  0  0  0  0  0  0  0  0  0  0  0
   14.8658   23.0332   16.9942 C   0  0  1  0  0  0  0  0  0  0  0  0
   13.9804   22.1465   17.7461 N   0  0  0  0  0  0  0  0  0  0  0  0
   14.2931   20.8411   18.0421 C   0  0  0  0  0  0  0  0  0  0  0  0
   15.3022   20.2707   17.7598 O   0  0  0  0  0  0  0  0  0  0  0  0
   13.2391   20.3018   18.7208 O   0  0  0  0  0  0  0  0  0  0  0  0
   13.3065   18.8844   18.9703 C   0  0  1  0  0  0  0  0  0  0  0  0
   12.6830   18.5974   20.3376 C   0  0  0  0  0  0  0  0  0  0  0  0
   11.2679   18.7105   20.1275 O   0  0  0  0  0  0  0  0  0  0  0  0
   11.0215   18.2342   18.8034 C   0  0  1  0  0  0  0  0  0  0  0  0
   10.1642   19.1221   18.0865 O   0  0  0  0  0  0  0  0  0  0  0  0
   10.9168   19.6508   16.9887 C   0  0  0  0  0  0  0  0  0  0  0  0
   11.9908   18.6319   16.6802 C   0  0  0  0  0  0  0  0  0  0  0  0
   12.3393   18.1383   18.0605 C   0  0  1  0  0  0  0  0  0  0  0  0
   14.1228   23.4859   15.7128 C   0  0  0  0  0  0  0  0  0  0  0  0
   12.4209   21.9353   14.6638 C   0  0  0  0  0  0  0  0  0  0  0  0
   12.0840   20.8702   13.8281 C   0  0  0  0  0  0  0  0  0  0  0  0
   13.0906   20.1854   13.1417 C   0  0  0  0  0  0  0  0  0  0  0  0
   14.4250   20.5858   13.2344 C   0  0  0  0  0  0  0  0  0  0  0  0
   14.7620   21.6739   14.0419 C   0  0  0  0  0  0  0  0  0  0  0  0
   13.7620   22.3436   14.7733 C   0  0  0  0  0  0  0  0  0  0  0  0
   20.5668   29.5981   13.5001 H   0  0  0  0  0  0  0  0  0  0  0  0
   22.0306   29.1290   14.3416 H   0  0  0  0  0  0  0  0  0  0  0  0
   18.6500   28.2054   13.4002 H   0  0  0  0  0  0  0  0  0  0  0  0
   17.4837   26.1464   14.1312 H   0  0  0  0  0  0  0  0  0  0  0  0
   20.9982   24.9599   16.3528 H   0  0  0  0  0  0  0  0  0  0  0  0
   22.1962   27.0043   15.5213 H   0  0  0  0  0  0  0  0  0  0  0  0
   18.7355   25.7669   18.5861 H   0  0  0  0  0  0  0  0  0  0  0  0
   19.6567   24.2969   18.2019 H   0  0  0  0  0  0  0  0  0  0  0  0
   17.3153   24.4862   20.1923 H   0  0  0  0  0  0  0  0  0  0  0  0
   17.8160   22.1184   20.6973 H   0  0  0  0  0  0  0  0  0  0  0  0
   19.0641   22.0958   19.4246 H   0  0  0  0  0  0  0  0  0  0  0  0
   17.3506   22.2907   18.9902 H   0  0  0  0  0  0  0  0  0  0  0  0
   19.4820   25.4747   20.9186 H   0  0  0  0  0  0  0  0  0  0  0  0
   20.3223   23.9681   20.4765 H   0  0  0  0  0  0  0  0  0  0  0  0
   19.1479   23.9706   21.8173 H   0  0  0  0  0  0  0  0  0  0  0  0
   16.1454   25.4136   16.4191 H   0  0  0  0  0  0  0  0  0  0  0  0
   16.4777   25.9871   18.0501 H   0  0  0  0  0  0  0  0  0  0  0  0
   15.5566   23.7549   18.9299 H   0  0  0  0  0  0  0  0  0  0  0  0
   14.3061   25.6867   18.8398 H   0  0  0  0  0  0  0  0  0  0  0  0
   15.7656   22.4800   16.7137 H   0  0  0  0  0  0  0  0  0  0  0  0
   13.1044   22.5287   18.0561 H   0  0  0  0  0  0  0  0  0  0  0  0
   14.3302   18.4930   18.9000 H   0  0  0  0  0  0  0  0  0  0  0  0
   13.0058   19.3100   21.1038 H   0  0  0  0  0  0  0  0  0  0  0  0
   12.8865   17.5731   20.6917 H   0  0  0  0  0  0  0  0  0  0  0  0
   10.5902   17.2255   18.8387 H   0  0  0  0  0  0  0  0  0  0  0  0
   11.3645   20.6067   17.2857 H   0  0  0  0  0  0  0  0  0  0  0  0
   10.2517   19.8299   16.1396 H   0  0  0  0  0  0  0  0  0  0  0  0
   12.8500   19.0411   16.1498 H   0  0  0  0  0  0  0  0  0  0  0  0
   11.5832   17.7962   16.0765 H   0  0  0  0  0  0  0  0  0  0  0  0
   12.6686   17.1018   17.9977 H   0  0  0  0  0  0  0  0  0  0  0  0
   14.7410   24.1962   15.1587 H   0  0  0  0  0  0  0  0  0  0  0  0
   13.1915   23.9998   15.9919 H   0  0  0  0  0  0  0  0  0  0  0  0
   11.6495   22.4406   15.2448 H   0  0  0  0  0  0  0  0  0  0  0  0
   11.0470   20.5661   13.7095 H   0  0  0  0  0  0  0  0  0  0  0  0
   12.8340   19.3277   12.5259 H   0  0  0  0  0  0  0  0  0  0  0  0
   15.1886   20.0480   12.6752 H   0  0  0  0  0  0  0  0  0  0  0  0
   15.8006   21.9885   14.1170 H   0  0  0  0  0  0  0  0  0  0  0  0
  1  2  1  0  0  0  0
  1 39  1  0  0  0  0
  1 40  1  0  0  0  0
  2  3  2  0  0  0  0
  2  7  1  0  0  0  0
  3  4  1  0  0  0  0
  3 41  1  0  0  0  0
  4  5  2  0  0  0  0
  4 42  1  0  0  0  0
  5  6  1  0  0  0  0
  5  8  1  0  0  0  0
  6  7  2  0  0  0  0
  6 43  1  0  0  0  0
  7 44  1  0  0  0  0
  8  9  2  0  0  0  0
  8 10  2  0  0  0  0
  8 11  1  0  0  0  0
 11 12  1  0  0  0  0
 11 16  1  0  0  0  0
 12 13  1  0  0  0  0
 12 45  1  0  0  0  0
 12 46  1  0  0  0  0
 13 14  1  0  0  0  0
 13 15  1  0  0  0  0
 13 47  1  0  0  0  0
 14 48  1  0  0  0  0
 14 49  1  0  0  0  0
 14 50  1  0  0  0  0
 15 51  1  0  0  0  0
 15 52  1  0  0  0  0
 15 53  1  0  0  0  0
 16 17  1  0  0  0  0
 16 54  1  0  0  0  0
 16 55  1  0  0  0  0
 17 18  1  0  0  0  0
 17 19  1  0  0  0  0
 17 56  1  1  0  0  0
 18 57  1  0  0  0  0
 19 20  1  0  0  0  0
 19 32  1  0  0  0  0
 19 58  1  6  0  0  0
 20 21  1  0  0  0  0
 20 59  1  0  0  0  0
 21 22  2  0  0  0  0
 21 23  1  0  0  0  0
 23 24  1  0  0  0  0
 24 25  1  0  0  0  0
 24 31  1  0  0  0  0
 24 60  1  6  0  0  0
 25 26  1  0  0  0  0
 25 61  1  0  0  0  0
 25 62  1  0  0  0  0
 26 27  1  0  0  0  0
 27 28  1  0  0  0  0
 27 31  1  0  0  0  0
 27 63  1  1  0  0  0
 28 29  1  0  0  0  0
 29 30  1  0  0  0  0
 29 64  1  0  0  0  0
 29 65  1  0  0  0  0
 30 31  1  0  0  0  0
 30 66  1  0  0  0  0
 30 67  1  0  0  0  0
 31 68  1  6  0  0  0
 32 38  1  0  0  0  0
 32 69  1  0  0  0  0
 32 70  1  0  0  0  0
 33 34  2  0  0  0  0
 33 38  1  0  0  0  0
 33 71  1  0  0  0  0
 34 35  1  0  0  0  0
 34 72  1  0  0  0  0
 35 36  2  0  0  0  0
 35 73  1  0  0  0  0
 36 37  1  0  0  0  0
 36 74  1  0  0  0  0
 37 38  2  0  0  0  0
 37 75  1  0  0  0  0
M  END
$$$$
