017
 OpenBabel04091912443D

 75 78  0  0  1  0  0  0  0  0999 V2000
   -9.3602   16.8455   18.6804 N   0  0  0  0  0  0  0  0  0  0  0  0
   -9.2089   16.5254   20.0106 C   0  0  0  0  0  0  0  0  0  0  0  0
  -10.3304   16.4361   20.8320 C   0  0  0  0  0  0  0  0  0  0  0  0
  -10.1905   16.1305   22.1706 C   0  0  0  0  0  0  0  0  0  0  0  0
   -8.9044   15.9236   22.6818 C   0  0  0  0  0  0  0  0  0  0  0  0
   -7.7733   16.0017   21.8758 C   0  0  0  0  0  0  0  0  0  0  0  0
   -7.9253   16.3163   20.5347 C   0  0  0  0  0  0  0  0  0  0  0  0
   -8.7349   15.3885   24.3458 S   0  0  0  0  0  0  0  0  0  0  0  0
   -9.9905   14.7586   24.6939 O   0  0  0  0  0  0  0  0  0  0  0  0
   -7.4760   14.6890   24.4616 O   0  0  0  0  0  0  0  0  0  0  0  0
   -8.6244   16.8511   25.2107 N   0  0  0  0  0  0  0  0  0  0  0  0
   -7.4620   17.7123   24.8720 C   0  0  0  0  0  0  0  0  0  0  0  0
   -6.9499   18.4441   26.1145 C   0  0  0  0  0  0  0  0  0  0  0  0
   -6.3189   17.4786   27.1135 C   0  0  0  0  0  0  0  0  0  0  0  0
   -5.9477   19.5187   25.7115 C   0  0  0  0  0  0  0  0  0  0  0  0
   -9.8866   17.6076   25.3809 C   0  0  0  0  0  0  0  0  0  0  0  0
  -10.3338   17.6454   26.8417 C   0  0  1  0  0  0  0  0  0  0  0  0
  -11.3697   18.6290   27.0022 O   0  0  0  0  0  0  0  0  0  0  0  0
  -10.8042   16.2987   27.3922 C   0  0  1  0  0  0  0  0  0  0  0  0
  -10.8499   16.4178   28.8466 N   0  0  0  0  0  0  0  0  0  0  0  0
   -9.9485   15.8468   29.6673 C   0  0  0  0  0  0  0  0  0  0  0  0
   -8.9999   15.1453   29.3025 O   0  0  0  0  0  0  0  0  0  0  0  0
  -10.2586   16.1119   30.9455 O   0  0  0  0  0  0  0  0  0  0  0  0
   -9.5721   15.3696   31.9725 C   0  0  1  0  0  0  0  0  0  0  0  0
   -9.2402   16.3590   33.0661 C   0  0  0  0  0  0  0  0  0  0  0  0
  -10.4598   16.5211   33.8064 O   0  0  0  0  0  0  0  0  0  0  0  0
  -11.1721   15.2797   33.7384 C   0  0  1  0  0  0  0  0  0  0  0  0
  -12.5458   15.4800   33.4233 O   0  0  0  0  0  0  0  0  0  0  0  0
  -12.8803   14.7641   32.2365 C   0  0  0  0  0  0  0  0  0  0  0  0
  -11.6859   13.9505   31.7988 C   0  0  0  0  0  0  0  0  0  0  0  0
  -10.5411   14.4218   32.6578 C   0  0  1  0  0  0  0  0  0  0  0  0
  -12.2054   15.8875   26.9148 C   0  0  0  0  0  0  0  0  0  0  0  0
  -13.5932   14.3439   28.3387 C   0  0  0  0  0  0  0  0  0  0  0  0
  -13.8492   13.0796   28.8573 C   0  0  0  0  0  0  0  0  0  0  0  0
  -13.0608   11.9928   28.4780 C   0  0  0  0  0  0  0  0  0  0  0  0
  -12.0066   12.1636   27.5885 C   0  0  0  0  0  0  0  0  0  0  0  0
  -11.7538   13.4221   27.0690 C   0  0  0  0  0  0  0  0  0  0  0  0
  -12.5435   14.5179   27.4352 C   0  0  0  0  0  0  0  0  0  0  0  0
  -10.2970   16.9794   18.3016 H   0  0  0  0  0  0  0  0  0  0  0  0
   -8.5625   16.8949   18.0721 H   0  0  0  0  0  0  0  0  0  0  0  0
  -11.3283   16.5836   20.4191 H   0  0  0  0  0  0  0  0  0  0  0  0
  -11.0704   16.0291   22.7987 H   0  0  0  0  0  0  0  0  0  0  0  0
   -6.7826   15.8036   22.2807 H   0  0  0  0  0  0  0  0  0  0  0  0
   -7.0500   16.3798   19.8981 H   0  0  0  0  0  0  0  0  0  0  0  0
   -7.7794   18.4353   24.1105 H   0  0  0  0  0  0  0  0  0  0  0  0
   -6.6528   17.1198   24.4361 H   0  0  0  0  0  0  0  0  0  0  0  0
   -7.7812   18.9523   26.6104 H   0  0  0  0  0  0  0  0  0  0  0  0
   -5.9447   18.0237   27.9862 H   0  0  0  0  0  0  0  0  0  0  0  0
   -5.4805   16.9350   26.6650 H   0  0  0  0  0  0  0  0  0  0  0  0
   -7.0531   16.7475   27.4651 H   0  0  0  0  0  0  0  0  0  0  0  0
   -6.3983   20.2097   24.9914 H   0  0  0  0  0  0  0  0  0  0  0  0
   -5.0542   19.0798   25.2573 H   0  0  0  0  0  0  0  0  0  0  0  0
   -5.6415   20.0992   26.5876 H   0  0  0  0  0  0  0  0  0  0  0  0
  -10.6845   17.1916   24.7649 H   0  0  0  0  0  0  0  0  0  0  0  0
   -9.7586   18.6372   25.0255 H   0  0  0  0  0  0  0  0  0  0  0  0
   -9.4973   17.9796   27.4635 H   0  0  0  0  0  0  0  0  0  0  0  0
  -12.1246   18.3703   26.4464 H   0  0  0  0  0  0  0  0  0  0  0  0
  -10.0707   15.5271   27.1281 H   0  0  0  0  0  0  0  0  0  0  0  0
  -11.5682   16.9906   29.2619 H   0  0  0  0  0  0  0  0  0  0  0  0
   -8.6811   14.8577   31.5981 H   0  0  0  0  0  0  0  0  0  0  0  0
   -8.9250   17.3264   32.6641 H   0  0  0  0  0  0  0  0  0  0  0  0
   -8.4765   15.9878   33.7582 H   0  0  0  0  0  0  0  0  0  0  0  0
  -11.1104   14.8043   34.7241 H   0  0  0  0  0  0  0  0  0  0  0  0
  -13.1863   15.4781   31.4642 H   0  0  0  0  0  0  0  0  0  0  0  0
  -13.7372   14.1165   32.4468 H   0  0  0  0  0  0  0  0  0  0  0  0
  -11.4972   14.0785   30.7313 H   0  0  0  0  0  0  0  0  0  0  0  0
  -11.8766   12.8830   31.9375 H   0  0  0  0  0  0  0  0  0  0  0  0
  -10.0039   13.5739   33.1044 H   0  0  0  0  0  0  0  0  0  0  0  0
  -12.2902   15.8856   25.8238 H   0  0  0  0  0  0  0  0  0  0  0  0
  -12.9487   16.6015   27.2940 H   0  0  0  0  0  0  0  0  0  0  0  0
  -14.1985   15.1900   28.6536 H   0  0  0  0  0  0  0  0  0  0  0  0
  -14.6634   12.9410   29.5604 H   0  0  0  0  0  0  0  0  0  0  0  0
  -13.2693   11.0060   28.8751 H   0  0  0  0  0  0  0  0  0  0  0  0
  -11.3781   11.3284   27.2948 H   0  0  0  0  0  0  0  0  0  0  0  0
  -10.9130   13.5471   26.3946 H   0  0  0  0  0  0  0  0  0  0  0  0
  1  2  1  0  0  0  0
  1 39  1  0  0  0  0
  1 40  1  0  0  0  0
  2  3  2  0  0  0  0
  2  7  1  0  0  0  0
  3  4  1  0  0  0  0
  3 41  1  0  0  0  0
  4  5  2  0  0  0  0
  4 42  1  0  0  0  0
  5  6  1  0  0  0  0
  5  8  1  0  0  0  0
  6  7  2  0  0  0  0
  6 43  1  0  0  0  0
  7 44  1  0  0  0  0
  8  9  2  0  0  0  0
  8 10  2  0  0  0  0
  8 11  1  0  0  0  0
 11 12  1  0  0  0  0
 11 16  1  0  0  0  0
 12 13  1  0  0  0  0
 12 45  1  0  0  0  0
 12 46  1  0  0  0  0
 13 14  1  0  0  0  0
 13 15  1  0  0  0  0
 13 47  1  0  0  0  0
 14 48  1  0  0  0  0
 14 49  1  0  0  0  0
 14 50  1  0  0  0  0
 15 51  1  0  0  0  0
 15 52  1  0  0  0  0
 15 53  1  0  0  0  0
 16 17  1  0  0  0  0
 16 54  1  0  0  0  0
 16 55  1  0  0  0  0
 17 18  1  0  0  0  0
 17 19  1  0  0  0  0
 17 56  1  1  0  0  0
 18 57  1  0  0  0  0
 19 20  1  0  0  0  0
 19 32  1  0  0  0  0
 19 58  1  6  0  0  0
 20 21  1  0  0  0  0
 20 59  1  0  0  0  0
 21 22  2  0  0  0  0
 21 23  1  0  0  0  0
 23 24  1  0  0  0  0
 24 25  1  0  0  0  0
 24 31  1  0  0  0  0
 24 60  1  6  0  0  0
 25 26  1  0  0  0  0
 25 61  1  0  0  0  0
 25 62  1  0  0  0  0
 26 27  1  0  0  0  0
 27 28  1  0  0  0  0
 27 31  1  0  0  0  0
 27 63  1  1  0  0  0
 28 29  1  0  0  0  0
 29 30  1  0  0  0  0
 29 64  1  0  0  0  0
 29 65  1  0  0  0  0
 30 31  1  0  0  0  0
 30 66  1  0  0  0  0
 30 67  1  0  0  0  0
 31 68  1  1  0  0  0
 32 38  1  0  0  0  0
 32 69  1  0  0  0  0
 32 70  1  0  0  0  0
 33 34  2  0  0  0  0
 33 38  1  0  0  0  0
 33 71  1  0  0  0  0
 34 35  1  0  0  0  0
 34 72  1  0  0  0  0
 35 36  2  0  0  0  0
 35 73  1  0  0  0  0
 36 37  1  0  0  0  0
 36 74  1  0  0  0  0
 37 38  2  0  0  0  0
 37 75  1  0  0  0  0
M  END
$$$$
