017
 OpenBabel04091911053D

 75 78  0  0  1  0  0  0  0  0999 V2000
    8.0345   57.2274   13.7877 N   0  0  0  0  0  0  0  0  0  0  0  0
    8.4498   58.4429   14.2834 C   0  0  0  0  0  0  0  0  0  0  0  0
    9.7440   58.8688   14.0413 C   0  0  0  0  0  0  0  0  0  0  0  0
   10.2084   60.0713   14.5298 C   0  0  0  0  0  0  0  0  0  0  0  0
    9.4296   60.8902   15.3081 C   0  0  0  0  0  0  0  0  0  0  0  0
    8.0620   60.5448   15.4891 C   0  0  0  0  0  0  0  0  0  0  0  0
    7.6057   59.2731   15.0287 C   0  0  0  0  0  0  0  0  0  0  0  0
   10.3971   62.2827   15.8637 S   0  0  0  0  0  0  0  0  0  0  0  0
   11.4659   62.4772   14.8577 O   0  0  0  0  0  0  0  0  0  0  0  0
    9.5241   63.3315   16.2103 O   0  0  0  0  0  0  0  0  0  0  0  0
   11.1891   61.7726   17.2929 N   0  0  0  0  0  0  0  0  0  0  0  0
   10.3362   61.5313   18.4754 C   0  0  0  0  0  0  0  0  0  0  0  0
   10.6984   62.2749   19.7740 C   0  0  0  0  0  0  0  0  0  0  0  0
   10.5083   63.7776   19.5984 C   0  0  0  0  0  0  0  0  0  0  0  0
    9.6859   61.7950   20.8278 C   0  0  0  0  0  0  0  0  0  0  0  0
   12.5207   61.1200   17.2589 C   0  0  0  0  0  0  0  0  0  0  0  0
   13.5690   62.0418   17.9252 C   0  0  1  0  0  0  0  0  0  0  0  0
   14.6669   61.3075   18.5045 O   0  0  0  0  0  0  0  0  0  0  0  0
   14.1166   63.1462   17.0006 C   0  0  1  0  0  0  0  0  0  0  0  0
   15.0088   63.9963   17.7870 N   0  0  0  0  0  0  0  0  0  0  0  0
   14.6978   65.2939   18.0604 C   0  0  0  0  0  0  0  0  0  0  0  0
   13.7208   65.8937   17.6614 O   0  0  0  0  0  0  0  0  0  0  0  0
   15.6692   65.8167   18.8413 O   0  0  0  0  0  0  0  0  0  0  0  0
   15.6009   67.2290   19.1100 C   0  0  1  0  0  0  0  0  0  0  0  0
   16.1887   67.4495   20.4953 C   0  0  0  0  0  0  0  0  0  0  0  0
   17.6113   67.4194   20.3195 O   0  0  0  0  0  0  0  0  0  0  0  0
   17.8921   67.9248   19.0107 C   0  0  1  0  0  0  0  0  0  0  0  0
   18.7765   67.0318   18.3243 O   0  0  0  0  0  0  0  0  0  0  0  0
   18.0545   66.4411   17.2404 C   0  0  0  0  0  0  0  0  0  0  0  0
   16.9337   67.3965   16.8912 C   0  0  0  0  0  0  0  0  0  0  0  0
   16.5812   68.0021   18.2289 C   0  0  1  0  0  0  0  0  0  0  0  0
   14.8822   62.6428   15.7664 C   0  0  0  0  0  0  0  0  0  0  0  0
   16.6255   64.2145   14.7861 C   0  0  0  0  0  0  0  0  0  0  0  0
   17.0190   65.3076   14.0046 C   0  0  0  0  0  0  0  0  0  0  0  0
   16.0428   66.0137   13.3229 C   0  0  0  0  0  0  0  0  0  0  0  0
   14.7127   65.6017   13.3889 C   0  0  0  0  0  0  0  0  0  0  0  0
   14.3281   64.5137   14.1699 C   0  0  0  0  0  0  0  0  0  0  0  0
   15.2912   63.7944   14.8695 C   0  0  0  0  0  0  0  0  0  0  0  0
    8.6584   56.6579   13.2329 H   0  0  0  0  0  0  0  0  0  0  0  0
    7.0977   56.8994   13.9616 H   0  0  0  0  0  0  0  0  0  0  0  0
   10.4518   58.2733   13.4876 H   0  0  0  0  0  0  0  0  0  0  0  0
   11.2247   60.3813   14.3280 H   0  0  0  0  0  0  0  0  0  0  0  0
    7.3224   61.1832   15.9813 H   0  0  0  0  0  0  0  0  0  0  0  0
    6.5977   58.9106   15.2638 H   0  0  0  0  0  0  0  0  0  0  0  0
   10.3262   60.4614   18.6854 H   0  0  0  0  0  0  0  0  0  0  0  0
    9.3190   61.8464   18.2263 H   0  0  0  0  0  0  0  0  0  0  0  0
   11.7158   62.0471   20.1263 H   0  0  0  0  0  0  0  0  0  0  0  0
   10.7577   64.3265   20.5147 H   0  0  0  0  0  0  0  0  0  0  0  0
    9.4598   63.9902   19.3525 H   0  0  0  0  0  0  0  0  0  0  0  0
   11.1332   64.1521   18.7848 H   0  0  0  0  0  0  0  0  0  0  0  0
    9.7895   60.7179   21.0090 H   0  0  0  0  0  0  0  0  0  0  0  0
    8.6655   61.9759   20.4603 H   0  0  0  0  0  0  0  0  0  0  0  0
    9.8040   62.3251   21.7779 H   0  0  0  0  0  0  0  0  0  0  0  0
   12.8210   60.9084   16.2293 H   0  0  0  0  0  0  0  0  0  0  0  0
   12.4884   60.1506   17.7760 H   0  0  0  0  0  0  0  0  0  0  0  0
   13.0847   62.5419   18.7653 H   0  0  0  0  0  0  0  0  0  0  0  0
   15.1370   60.8426   17.7988 H   0  0  0  0  0  0  0  0  0  0  0  0
   13.2580   63.7313   16.6639 H   0  0  0  0  0  0  0  0  0  0  0  0
   15.8693   63.6215   18.1546 H   0  0  0  0  0  0  0  0  0  0  0  0
   14.5704   67.6010   19.0467 H   0  0  0  0  0  0  0  0  0  0  0  0
   15.8883   66.6755   21.2080 H   0  0  0  0  0  0  0  0  0  0  0  0
   15.9316   68.4357   20.9033 H   0  0  0  0  0  0  0  0  0  0  0  0
   18.3865   68.9036   19.0839 H   0  0  0  0  0  0  0  0  0  0  0  0
   17.6676   65.4704   17.5657 H   0  0  0  0  0  0  0  0  0  0  0  0
   18.7482   66.2767   16.4154 H   0  0  0  0  0  0  0  0  0  0  0  0
   16.0970   66.8849   16.4138 H   0  0  0  0  0  0  0  0  0  0  0  0
   17.2947   68.1653   16.1939 H   0  0  0  0  0  0  0  0  0  0  0  0
   16.2263   69.0351   18.1275 H   0  0  0  0  0  0  0  0  0  0  0  0
   14.2612   61.9521   15.1845 H   0  0  0  0  0  0  0  0  0  0  0  0
   15.7794   62.0922   16.0819 H   0  0  0  0  0  0  0  0  0  0  0  0
   17.3811   63.7071   15.3753 H   0  0  0  0  0  0  0  0  0  0  0  0
   18.0653   65.5978   13.9338 H   0  0  0  0  0  0  0  0  0  0  0  0
   16.2973   66.8920   12.7365 H   0  0  0  0  0  0  0  0  0  0  0  0
   13.9614   66.1346   12.8146 H   0  0  0  0  0  0  0  0  0  0  0  0
   13.2748   64.2577   14.2498 H   0  0  0  0  0  0  0  0  0  0  0  0
  1  2  1  0  0  0  0
  1 39  1  0  0  0  0
  1 40  1  0  0  0  0
  2  3  2  0  0  0  0
  2  7  1  0  0  0  0
  3  4  1  0  0  0  0
  3 41  1  0  0  0  0
  4  5  2  0  0  0  0
  4 42  1  0  0  0  0
  5  6  1  0  0  0  0
  5  8  1  0  0  0  0
  6  7  2  0  0  0  0
  6 43  1  0  0  0  0
  7 44  1  0  0  0  0
  8  9  2  0  0  0  0
  8 10  2  0  0  0  0
  8 11  1  0  0  0  0
 11 12  1  0  0  0  0
 11 16  1  0  0  0  0
 12 13  1  0  0  0  0
 12 45  1  0  0  0  0
 12 46  1  0  0  0  0
 13 14  1  0  0  0  0
 13 15  1  0  0  0  0
 13 47  1  0  0  0  0
 14 48  1  0  0  0  0
 14 49  1  0  0  0  0
 14 50  1  0  0  0  0
 15 51  1  0  0  0  0
 15 52  1  0  0  0  0
 15 53  1  0  0  0  0
 16 17  1  0  0  0  0
 16 54  1  0  0  0  0
 16 55  1  0  0  0  0
 17 18  1  0  0  0  0
 17 19  1  0  0  0  0
 17 56  1  1  0  0  0
 18 57  1  0  0  0  0
 19 20  1  0  0  0  0
 19 32  1  0  0  0  0
 19 58  1  6  0  0  0
 20 21  1  0  0  0  0
 20 59  1  0  0  0  0
 21 22  2  0  0  0  0
 21 23  1  0  0  0  0
 23 24  1  0  0  0  0
 24 25  1  0  0  0  0
 24 31  1  0  0  0  0
 24 60  1  6  0  0  0
 25 26  1  0  0  0  0
 25 61  1  0  0  0  0
 25 62  1  0  0  0  0
 26 27  1  0  0  0  0
 27 28  1  0  0  0  0
 27 31  1  0  0  0  0
 27 63  1  1  0  0  0
 28 29  1  0  0  0  0
 29 30  1  0  0  0  0
 29 64  1  0  0  0  0
 29 65  1  0  0  0  0
 30 31  1  0  0  0  0
 30 66  1  0  0  0  0
 30 67  1  0  0  0  0
 31 68  1  6  0  0  0
 32 38  1  0  0  0  0
 32 69  1  0  0  0  0
 32 70  1  0  0  0  0
 33 34  2  0  0  0  0
 33 38  1  0  0  0  0
 33 71  1  0  0  0  0
 34 35  1  0  0  0  0
 34 72  1  0  0  0  0
 35 36  2  0  0  0  0
 35 73  1  0  0  0  0
 36 37  1  0  0  0  0
 36 74  1  0  0  0  0
 37 38  2  0  0  0  0
 37 75  1  0  0  0  0
M  END
$$$$
