017
 OpenBabel04091911183D

 75 78  0  0  1  0  0  0  0  0999 V2000
   -8.2318   14.0066  -13.7742 N   0  0  0  0  0  0  0  0  0  0  0  0
   -8.8720   15.1676  -14.1536 C   0  0  0  0  0  0  0  0  0  0  0  0
  -10.1978   15.3755  -13.7702 C   0  0  0  0  0  0  0  0  0  0  0  0
  -10.8580   16.5499  -14.1095 C   0  0  0  0  0  0  0  0  0  0  0  0
  -10.2018   17.5149  -14.8678 C   0  0  0  0  0  0  0  0  0  0  0  0
   -8.8658   17.3347  -15.2504 C   0  0  0  0  0  0  0  0  0  0  0  0
   -8.2118   16.1455  -14.9100 C   0  0  0  0  0  0  0  0  0  0  0  0
  -11.1120   18.9581  -15.3511 S   0  0  0  0  0  0  0  0  0  0  0  0
  -12.2636   19.0450  -14.4511 O   0  0  0  0  0  0  0  0  0  0  0  0
  -10.1877   20.0411  -15.4570 O   0  0  0  0  0  0  0  0  0  0  0  0
  -11.6961   18.6705  -16.9056 N   0  0  0  0  0  0  0  0  0  0  0  0
  -10.6972   18.4194  -17.9625 C   0  0  0  0  0  0  0  0  0  0  0  0
  -11.0608   19.0088  -19.3313 C   0  0  0  0  0  0  0  0  0  0  0  0
  -11.1645   20.5290  -19.2886 C   0  0  0  0  0  0  0  0  0  0  0  0
   -9.9681   18.6003  -20.3221 C   0  0  0  0  0  0  0  0  0  0  0  0
  -12.9825   17.9779  -17.0298 C   0  0  0  0  0  0  0  0  0  0  0  0
  -14.0668   18.8714  -17.6495 C   0  0  1  0  0  0  0  0  0  0  0  0
  -15.1779   18.0409  -18.0388 O   0  0  0  0  0  0  0  0  0  0  0  0
  -14.5578   19.9755  -16.6835 C   0  0  1  0  0  0  0  0  0  0  0  0
  -15.4212   20.8996  -17.4087 N   0  0  0  0  0  0  0  0  0  0  0  0
  -15.0985   22.1820  -17.6687 C   0  0  0  0  0  0  0  0  0  0  0  0
  -14.0961   22.7863  -17.2710 O   0  0  0  0  0  0  0  0  0  0  0  0
  -16.0562   22.7164  -18.4423 O   0  0  0  0  0  0  0  0  0  0  0  0
  -16.0049   24.1310  -18.7035 C   0  0  1  0  0  0  0  0  0  0  0  0
  -16.5457   24.3238  -20.1084 C   0  0  0  0  0  0  0  0  0  0  0  0
  -17.9737   24.2628  -19.9710 O   0  0  0  0  0  0  0  0  0  0  0  0
  -18.3094   24.7825  -18.6746 C   0  0  1  0  0  0  0  0  0  0  0  0
  -19.2182   23.9063  -18.0068 O   0  0  0  0  0  0  0  0  0  0  0  0
  -18.5075   23.2689  -16.9435 C   0  0  0  0  0  0  0  0  0  0  0  0
  -17.4021   24.2181  -16.5283 C   0  0  0  0  0  0  0  0  0  0  0  0
  -17.0289   24.8715  -17.8432 C   0  0  1  0  0  0  0  0  0  0  0  0
  -15.2434   19.4774  -15.3970 C   0  0  0  0  0  0  0  0  0  0  0  0
  -16.9300   21.0748  -14.3938 C   0  0  0  0  0  0  0  0  0  0  0  0
  -17.2686   22.1465  -13.5706 C   0  0  0  0  0  0  0  0  0  0  0  0
  -16.2726   22.8383  -12.8846 C   0  0  0  0  0  0  0  0  0  0  0  0
  -14.9520   22.4054  -12.9529 C   0  0  0  0  0  0  0  0  0  0  0  0
  -14.6455   21.2527  -13.6751 C   0  0  0  0  0  0  0  0  0  0  0  0
  -15.6130   20.6140  -14.4625 C   0  0  0  0  0  0  0  0  0  0  0  0
   -8.7199   13.3156  -13.2220 H   0  0  0  0  0  0  0  0  0  0  0  0
   -7.2680   13.8475  -14.0266 H   0  0  0  0  0  0  0  0  0  0  0  0
  -10.7289   14.6188  -13.2001 H   0  0  0  0  0  0  0  0  0  0  0  0
  -11.8953   16.7016  -13.8200 H   0  0  0  0  0  0  0  0  0  0  0  0
   -8.3479   18.0883  -15.8421 H   0  0  0  0  0  0  0  0  0  0  0  0
   -7.1885   15.9833  -15.2398 H   0  0  0  0  0  0  0  0  0  0  0  0
  -10.5755   17.3376  -18.0730 H   0  0  0  0  0  0  0  0  0  0  0  0
   -9.7389   18.8514  -17.6575 H   0  0  0  0  0  0  0  0  0  0  0  0
  -12.0167   18.6028  -19.6803 H   0  0  0  0  0  0  0  0  0  0  0  0
  -11.4220   20.9258  -20.2785 H   0  0  0  0  0  0  0  0  0  0  0  0
  -10.2111   20.9676  -18.9751 H   0  0  0  0  0  0  0  0  0  0  0  0
  -11.9384   20.8395  -18.5816 H   0  0  0  0  0  0  0  0  0  0  0  0
   -9.8853   17.5079  -20.3652 H   0  0  0  0  0  0  0  0  0  0  0  0
   -8.9972   19.0048  -20.0076 H   0  0  0  0  0  0  0  0  0  0  0  0
  -10.1885   18.9721  -21.3286 H   0  0  0  0  0  0  0  0  0  0  0  0
  -13.3245   17.6499  -16.0504 H   0  0  0  0  0  0  0  0  0  0  0  0
  -12.8568   17.0821  -17.6391 H   0  0  0  0  0  0  0  0  0  0  0  0
  -13.6858   19.3563  -18.5593 H   0  0  0  0  0  0  0  0  0  0  0  0
  -14.8578   17.3761  -18.6722 H   0  0  0  0  0  0  0  0  0  0  0  0
  -13.6712   20.5336  -16.3816 H   0  0  0  0  0  0  0  0  0  0  0  0
  -16.3203   20.5745  -17.7430 H   0  0  0  0  0  0  0  0  0  0  0  0
  -14.9841   24.5174  -18.6102 H   0  0  0  0  0  0  0  0  0  0  0  0
  -16.2147   23.5446  -20.8065 H   0  0  0  0  0  0  0  0  0  0  0  0
  -16.2863   25.3064  -20.5236 H   0  0  0  0  0  0  0  0  0  0  0  0
  -18.8004   25.7585  -18.7954 H   0  0  0  0  0  0  0  0  0  0  0  0
  -18.0983   22.3260  -17.3153 H   0  0  0  0  0  0  0  0  0  0  0  0
  -19.2022   23.0515  -16.1333 H   0  0  0  0  0  0  0  0  0  0  0  0
  -16.5635   23.6964  -16.0594 H   0  0  0  0  0  0  0  0  0  0  0  0
  -17.7751   24.9545  -15.8008 H   0  0  0  0  0  0  0  0  0  0  0  0
  -16.7176   25.9106  -17.6914 H   0  0  0  0  0  0  0  0  0  0  0  0
  -14.5728   18.8059  -14.8576 H   0  0  0  0  0  0  0  0  0  0  0  0
  -16.1465   18.9016  -15.6380 H   0  0  0  0  0  0  0  0  0  0  0  0
  -17.7036   20.5794  -14.9760 H   0  0  0  0  0  0  0  0  0  0  0  0
  -18.3073   22.4516  -13.4798 H   0  0  0  0  0  0  0  0  0  0  0  0
  -16.5264   23.7074  -12.2871 H   0  0  0  0  0  0  0  0  0  0  0  0
  -14.1615   22.9553  -12.4477 H   0  0  0  0  0  0  0  0  0  0  0  0
  -13.6405   20.8431  -13.6104 H   0  0  0  0  0  0  0  0  0  0  0  0
  1  2  1  0  0  0  0
  1 39  1  0  0  0  0
  1 40  1  0  0  0  0
  2  3  2  0  0  0  0
  2  7  1  0  0  0  0
  3  4  1  0  0  0  0
  3 41  1  0  0  0  0
  4  5  2  0  0  0  0
  4 42  1  0  0  0  0
  5  6  1  0  0  0  0
  5  8  1  0  0  0  0
  6  7  2  0  0  0  0
  6 43  1  0  0  0  0
  7 44  1  0  0  0  0
  8  9  2  0  0  0  0
  8 10  2  0  0  0  0
  8 11  1  0  0  0  0
 11 12  1  0  0  0  0
 11 16  1  0  0  0  0
 12 13  1  0  0  0  0
 12 45  1  0  0  0  0
 12 46  1  0  0  0  0
 13 14  1  0  0  0  0
 13 15  1  0  0  0  0
 13 47  1  0  0  0  0
 14 48  1  0  0  0  0
 14 49  1  0  0  0  0
 14 50  1  0  0  0  0
 15 51  1  0  0  0  0
 15 52  1  0  0  0  0
 15 53  1  0  0  0  0
 16 17  1  0  0  0  0
 16 54  1  0  0  0  0
 16 55  1  0  0  0  0
 17 18  1  0  0  0  0
 17 19  1  0  0  0  0
 17 56  1  6  0  0  0
 18 57  1  0  0  0  0
 19 20  1  0  0  0  0
 19 32  1  0  0  0  0
 19 58  1  1  0  0  0
 20 21  1  0  0  0  0
 20 59  1  0  0  0  0
 21 22  2  0  0  0  0
 21 23  1  0  0  0  0
 23 24  1  0  0  0  0
 24 25  1  0  0  0  0
 24 31  1  0  0  0  0
 24 60  1  1  0  0  0
 25 26  1  0  0  0  0
 25 61  1  0  0  0  0
 25 62  1  0  0  0  0
 26 27  1  0  0  0  0
 27 28  1  0  0  0  0
 27 31  1  0  0  0  0
 27 63  1  6  0  0  0
 28 29  1  0  0  0  0
 29 30  1  0  0  0  0
 29 64  1  0  0  0  0
 29 65  1  0  0  0  0
 30 31  1  0  0  0  0
 30 66  1  0  0  0  0
 30 67  1  0  0  0  0
 31 68  1  1  0  0  0
 32 38  1  0  0  0  0
 32 69  1  0  0  0  0
 32 70  1  0  0  0  0
 33 34  2  0  0  0  0
 33 38  1  0  0  0  0
 33 71  1  0  0  0  0
 34 35  1  0  0  0  0
 34 72  1  0  0  0  0
 35 36  2  0  0  0  0
 35 73  1  0  0  0  0
 36 37  1  0  0  0  0
 36 74  1  0  0  0  0
 37 38  2  0  0  0  0
 37 75  1  0  0  0  0
M  END
$$$$
