03L
 OpenBabel04091915453D

 42 44  0  0  0  0  0  0  0  0999 V2000
   -5.1984  -26.0545    8.9078 O   0  0  0  0  0  0  0  0  0  0  0  0
   -5.2462  -27.5466    6.1668 O   0  0  0  0  0  0  0  0  0  0  0  0
   -7.4668  -26.0859    8.9377 O   0  0  0  0  0  0  0  0  0  0  0  0
    4.7910  -30.2257    9.5973 Cl  0  0  0  0  0  0  0  0  0  0  0  0
   -3.9799  -30.3872    4.5917 Cl  0  0  0  0  0  0  0  0  0  0  0  0
   -7.0461  -30.2328   10.0670 C   0  0  0  0  0  0  0  0  0  0  0  0
   -0.2981  -28.9281    8.4779 Cl  0  0  0  0  0  0  0  0  0  0  0  0
   -6.3037  -30.9827    9.1630 C   0  0  0  0  0  0  0  0  0  0  0  0
   -0.1450  -31.0906    3.9043 C   0  0  0  0  0  0  0  0  0  0  0  0
   -1.5243  -31.1966    3.9555 C   0  0  0  0  0  0  0  0  0  0  0  0
    0.4873  -29.9942    4.4777 C   0  0  0  0  0  0  0  0  0  0  0  0
   -7.0481  -28.8341    9.9794 C   0  0  0  0  0  0  0  0  0  0  0  0
   -5.5481  -30.3315    8.1734 C   0  0  0  0  0  0  0  0  0  0  0  0
    4.0725  -28.9050    7.3632 C   0  0  0  0  0  0  0  0  0  0  0  0
    2.2981  -29.5113    8.8902 C   0  0  0  0  0  0  0  0  0  0  0  0
    3.1449  -28.3152    6.5123 C   0  0  0  0  0  0  0  0  0  0  0  0
    1.3730  -28.9189    8.0417 C   0  0  0  0  0  0  0  0  0  0  0  0
   -2.4995  -28.0468    5.8529 C   0  0  0  0  0  0  0  0  0  0  0  0
   -3.3497  -28.6044    6.9042 N   0  0  0  0  0  0  0  0  0  0  0  0
    0.6253  -27.5589    5.7504 S   0  0  0  0  0  0  0  0  0  0  0  0
   -6.3311  -26.6515    8.9147 C   0  0  0  0  0  0  0  0  0  0  0  0
   -4.7182  -28.2623    6.9734 C   0  0  0  0  0  0  0  0  0  0  0  0
    3.6436  -29.4988    8.5471 C   0  0  0  0  0  0  0  0  0  0  0  0
   -2.2698  -30.2022    4.5786 C   0  0  0  0  0  0  0  0  0  0  0  0
    1.7918  -28.3265    6.8493 C   0  0  0  0  0  0  0  0  0  0  0  0
   -0.2532  -28.9911    5.1072 C   0  0  0  0  0  0  0  0  0  0  0  0
   -6.2958  -28.1666    8.9796 C   0  0  0  0  0  0  0  0  0  0  0  0
   -5.5260  -28.9267    8.0845 C   0  0  0  0  0  0  0  0  0  0  0  0
   -1.6496  -29.0951    5.1717 C   0  0  0  0  0  0  0  0  0  0  0  0
   -7.6273  -30.7279   10.8399 H   0  0  0  0  0  0  0  0  0  0  0  0
   -6.3094  -32.0685    9.2248 H   0  0  0  0  0  0  0  0  0  0  0  0
    0.4382  -31.8609    3.4147 H   0  0  0  0  0  0  0  0  0  0  0  0
   -2.0249  -32.0496    3.5097 H   0  0  0  0  0  0  0  0  0  0  0  0
    1.5705  -29.9186    4.4327 H   0  0  0  0  0  0  0  0  0  0  0  0
   -7.6370  -28.2536   10.6925 H   0  0  0  0  0  0  0  0  0  0  0  0
   -4.9804  -30.9321    7.4668 H   0  0  0  0  0  0  0  0  0  0  0  0
    5.1269  -28.8982    7.1015 H   0  0  0  0  0  0  0  0  0  0  0  0
    1.9676  -29.9745    9.8135 H   0  0  0  0  0  0  0  0  0  0  0  0
    3.4714  -27.8544    5.5830 H   0  0  0  0  0  0  0  0  0  0  0  0
   -1.8456  -27.2992    6.3078 H   0  0  0  0  0  0  0  0  0  0  0  0
   -3.0969  -27.5427    5.0876 H   0  0  0  0  0  0  0  0  0  0  0  0
   -2.9321  -29.2113    7.5786 H   0  0  0  0  0  0  0  0  0  0  0  0
  1 21  2  0  0  0  0
  2 22  2  0  0  0  0
  3 21  1  0  0  0  0
  4 23  1  0  0  0  0
  5 24  1  0  0  0  0
  6  8  2  0  0  0  0
  6 12  1  0  0  0  0
  6 30  1  0  0  0  0
  7 17  1  0  0  0  0
  8 13  1  0  0  0  0
  8 31  1  0  0  0  0
  9 10  2  0  0  0  0
  9 11  1  0  0  0  0
  9 32  1  0  0  0  0
 10 24  1  0  0  0  0
 10 33  1  0  0  0  0
 11 26  2  0  0  0  0
 11 34  1  0  0  0  0
 12 27  2  0  0  0  0
 12 35  1  0  0  0  0
 13 28  2  0  0  0  0
 13 36  1  0  0  0  0
 14 16  2  0  0  0  0
 14 23  1  0  0  0  0
 14 37  1  0  0  0  0
 15 17  1  0  0  0  0
 15 23  2  0  0  0  0
 15 38  1  0  0  0  0
 16 25  1  0  0  0  0
 16 39  1  0  0  0  0
 17 25  2  0  0  0  0
 18 19  1  0  0  0  0
 18 29  1  0  0  0  0
 18 40  1  0  0  0  0
 18 41  1  0  0  0  0
 19 22  1  0  0  0  0
 19 42  1  0  0  0  0
 20 25  1  0  0  0  0
 20 26  1  0  0  0  0
 21 27  1  0  0  0  0
 22 28  1  0  0  0  0
 24 29  2  0  0  0  0
 26 29  1  0  0  0  0
 27 28  1  0  0  0  0
M  END
$$$$
