08H
 OpenBabel04091915513D

 35 38  0  0  0  0  0  0  0  0999 V2000
   29.1297   15.6977   -1.1464 C   0  0  0  0  0  0  0  0  0  0  0  0
   27.8725   15.1129   -1.0150 C   0  0  0  0  0  0  0  0  0  0  0  0
   27.2550   15.0638    0.2362 C   0  0  0  0  0  0  0  0  0  0  0  0
   25.6902   14.3810    0.4073 Cl  0  0  0  0  0  0  0  0  0  0  0  0
   27.8848   15.5757    1.3630 C   0  0  0  0  0  0  0  0  0  0  0  0
   29.1402   16.1641    1.2367 C   0  0  0  0  0  0  0  0  0  0  0  0
   29.7544   16.2553   -0.0070 C   0  0  0  0  0  0  0  0  0  0  0  0
   31.0346   16.8407   -0.0567 N   0  3  0  0  0  0  0  0  0  0  0  0
   31.5568   17.8998    0.6698 C   0  0  0  0  0  0  0  0  0  0  0  0
   30.8167   18.8077    1.5808 C   0  0  0  0  0  0  0  0  0  0  0  0
   32.8253   18.0501    0.3477 N   0  0  0  0  0  0  0  0  0  0  0  0
   33.1611   17.0785   -0.5573 N   0  0  0  0  0  0  0  0  0  0  0  0
   32.0782   16.3766   -0.8118 C   0  0  0  0  0  0  0  0  0  0  0  0
   31.9194   15.2365   -1.7432 C   0  0  0  0  0  0  0  0  0  0  0  0
   30.9697   15.6045   -2.7893 N   0  0  0  0  0  0  0  0  0  0  0  0
   29.7243   15.8288   -2.5171 C   0  0  0  0  0  0  0  0  0  0  0  0
   28.8446   16.2855   -3.6398 C   0  0  0  0  0  0  0  0  0  0  0  0
   27.6767   17.0208   -3.3995 C   0  0  0  0  0  0  0  0  0  0  0  0
   26.9330   17.5394   -4.4551 C   0  0  0  0  0  0  0  0  0  0  0  0
   27.3447   17.3230   -5.7674 C   0  0  0  0  0  0  0  0  0  0  0  0
   28.4964   16.5789   -6.0171 C   0  0  0  0  0  0  0  0  0  0  0  0
   29.2422   16.0559   -4.9584 C   0  0  0  0  0  0  0  0  0  0  0  0
   27.3209   14.7421   -1.8853 H   0  0  0  0  0  0  0  0  0  0  0  0
   27.4307   15.5076    2.3448 H   0  0  0  0  0  0  0  0  0  0  0  0
   29.6649   16.4706    2.1420 H   0  0  0  0  0  0  0  0  0  0  0  0
   31.4957   19.5753    1.9681 H   0  0  0  0  0  0  0  0  0  0  0  0
   30.4257   18.2888    2.4569 H   0  0  0  0  0  0  0  0  0  0  0  0
   29.9909   19.3151    1.0696 H   0  0  0  0  0  0  0  0  0  0  0  0
   31.6065   14.3163   -1.2326 H   0  0  0  0  0  0  0  0  0  0  0  0
   32.8898   15.0134   -2.2018 H   0  0  0  0  0  0  0  0  0  0  0  0
   27.3278   17.2185   -2.3930 H   0  0  0  0  0  0  0  0  0  0  0  0
   26.0445   18.1294   -4.2479 H   0  0  0  0  0  0  0  0  0  0  0  0
   26.7700   17.7344   -6.5934 H   0  0  0  0  0  0  0  0  0  0  0  0
   28.8272   16.4162   -7.0383 H   0  0  0  0  0  0  0  0  0  0  0  0
   30.1428   15.4841   -5.1686 H   0  0  0  0  0  0  0  0  0  0  0  0
  1  2  2  0  0  0  0
  1  7  1  0  0  0  0
  1 16  1  0  0  0  0
  2  3  1  0  0  0  0
  2 23  1  0  0  0  0
  3  4  1  0  0  0  0
  3  5  2  0  0  0  0
  5  6  1  0  0  0  0
  5 24  1  0  0  0  0
  6  7  2  0  0  0  0
  6 25  1  0  0  0  0
  7  8  1  0  0  0  0
  8  9  2  0  0  0  0
  8 13  1  0  0  0  0
  9 10  1  0  0  0  0
  9 11  1  0  0  0  0
 10 26  1  0  0  0  0
 10 27  1  0  0  0  0
 10 28  1  0  0  0  0
 11 12  1  0  0  0  0
 12 13  2  0  0  0  0
 13 14  1  0  0  0  0
 14 15  1  0  0  0  0
 14 29  1  0  0  0  0
 14 30  1  0  0  0  0
 15 16  2  0  0  0  0
 16 17  1  0  0  0  0
 17 18  2  0  0  0  0
 17 22  1  0  0  0  0
 18 19  1  0  0  0  0
 18 31  1  0  0  0  0
 19 20  2  0  0  0  0
 19 32  1  0  0  0  0
 20 21  1  0  0  0  0
 20 33  1  0  0  0  0
 21 22  2  0  0  0  0
 21 34  1  0  0  0  0
 22 35  1  0  0  0  0
M  CHG  1   8   1
M  END
$$$$
