08K
 OpenBabel04091915513D

 37 40  0  0  0  0  0  0  0  0999 V2000
   25.6160   14.3471    0.3913 Cl  0  0  0  0  0  0  0  0  0  0  0  0
   27.1764   15.0503    0.2378 C   0  0  0  0  0  0  0  0  0  0  0  0
   27.7863   15.1192   -1.0139 C   0  0  0  0  0  0  0  0  0  0  0  0
   29.0386   15.7469   -1.1581 C   0  0  0  0  0  0  0  0  0  0  0  0
   29.6109   15.8612   -2.5441 C   0  0  0  0  0  0  0  0  0  0  0  0
   28.7290   16.3352   -3.6726 C   0  0  0  0  0  0  0  0  0  0  0  0
   27.5714   17.0951   -3.4424 C   0  0  0  0  0  0  0  0  0  0  0  0
   26.7906   17.5455   -4.5102 C   0  0  0  0  0  0  0  0  0  0  0  0
   27.1757   17.2722   -5.8200 C   0  0  0  0  0  0  0  0  0  0  0  0
   28.3390   16.5488   -6.0641 C   0  0  0  0  0  0  0  0  0  0  0  0
   29.1118   16.0795   -4.9981 C   0  0  0  0  0  0  0  0  0  0  0  0
   30.8510   15.5760   -2.8351 N   0  0  0  0  0  0  0  0  0  0  0  0
   31.7299   15.3273   -1.8076 N   0  3  0  0  0  0  0  0  0  0  0  0
   32.9119   14.5697   -2.2299 C   0  0  0  0  0  0  0  0  0  0  0  0
   31.9902   16.3396   -0.9300 C   0  0  0  0  0  0  0  0  0  0  0  0
   30.9805   16.8206   -0.1146 N   0  3  0  0  0  0  0  0  0  0  0  0
   31.5754   17.8228    0.6355 C   0  0  0  0  0  0  0  0  0  0  0  0
   30.8651   18.7734    1.5238 C   0  0  0  0  0  0  0  0  0  0  0  0
   32.8606   17.8753    0.3480 N   0  0  0  0  0  0  0  0  0  0  0  0
   33.1250   16.9275   -0.6064 N   0  0  0  0  0  0  0  0  0  0  0  0
   29.6809   16.2686   -0.0212 C   0  0  0  0  0  0  0  0  0  0  0  0
   29.0754   16.1470    1.2384 C   0  0  0  0  0  0  0  0  0  0  0  0
   27.8196   15.5525    1.3634 C   0  0  0  0  0  0  0  0  0  0  0  0
   27.2789   14.6930   -1.8747 H   0  0  0  0  0  0  0  0  0  0  0  0
   27.2591   17.3669   -2.4387 H   0  0  0  0  0  0  0  0  0  0  0  0
   25.8882   18.1218   -4.3188 H   0  0  0  0  0  0  0  0  0  0  0  0
   26.5764   17.6384   -6.6517 H   0  0  0  0  0  0  0  0  0  0  0  0
   28.6546   16.3563   -7.0876 H   0  0  0  0  0  0  0  0  0  0  0  0
   30.0243   15.5250   -5.2113 H   0  0  0  0  0  0  0  0  0  0  0  0
   33.5600   14.3397   -1.3751 H   0  0  0  0  0  0  0  0  0  0  0  0
   33.4937   15.1147   -2.9808 H   0  0  0  0  0  0  0  0  0  0  0  0
   32.6005   13.6099   -2.6557 H   0  0  0  0  0  0  0  0  0  0  0  0
   31.5367   19.5828    1.8270 H   0  0  0  0  0  0  0  0  0  0  0  0
   30.5192   18.2933    2.4407 H   0  0  0  0  0  0  0  0  0  0  0  0
   30.0101   19.2253    1.0105 H   0  0  0  0  0  0  0  0  0  0  0  0
   29.5884   16.4319    2.1513 H   0  0  0  0  0  0  0  0  0  0  0  0
   27.3635   15.4597    2.3463 H   0  0  0  0  0  0  0  0  0  0  0  0
  1  2  1  0  0  0  0
  2  3  2  0  0  0  0
  2 23  1  0  0  0  0
  3  4  1  0  0  0  0
  3 24  1  0  0  0  0
  4  5  2  0  0  0  0
  4 21  1  0  0  0  0
  5  6  1  0  0  0  0
  5 12  1  0  0  0  0
  6  7  2  0  0  0  0
  6 11  1  0  0  0  0
  7  8  1  0  0  0  0
  7 25  1  0  0  0  0
  8  9  2  0  0  0  0
  8 26  1  0  0  0  0
  9 10  1  0  0  0  0
  9 27  1  0  0  0  0
 10 11  2  0  0  0  0
 10 28  1  0  0  0  0
 11 29  1  0  0  0  0
 12 13  2  0  0  0  0
 13 14  1  0  0  0  0
 13 15  1  0  0  0  0
 14 30  1  0  0  0  0
 14 31  1  0  0  0  0
 14 32  1  0  0  0  0
 15 16  1  0  0  0  0
 15 20  2  0  0  0  0
 16 17  1  0  0  0  0
 16 21  2  0  0  0  0
 17 18  1  0  0  0  0
 17 19  2  0  0  0  0
 18 33  1  0  0  0  0
 18 34  1  0  0  0  0
 18 35  1  0  0  0  0
 19 20  1  0  0  0  0
 21 22  1  0  0  0  0
 22 23  2  0  0  0  0
 22 36  1  0  0  0  0
 23 37  1  0  0  0  0
M  CHG  2  13   1  16   1
M  END
$$$$
