091
 OpenBabel04091915563D

 27 29  0  0  1  0  0  0  0  0999 V2000
   23.0918   36.3607   41.4222 C   0  0  1  0  0  0  0  0  0  0  0  0
   24.4945   36.8437   41.2668 C   0  0  0  0  0  0  0  0  0  0  0  0
   22.9691   36.1781   42.9339 C   0  0  0  0  0  0  0  0  0  0  0  0
   22.0747   37.4047   40.9749 C   0  0  0  0  0  0  0  0  0  0  0  0
   22.7839   35.0720   40.6836 C   0  0  0  0  0  0  0  0  0  0  0  0
   25.0738   36.9862   42.5276 C   0  0  0  0  0  0  0  0  0  0  0  0
   25.1917   37.1625   40.1178 C   0  0  0  0  0  0  0  0  0  0  0  0
   24.1715   36.5854   43.5054 N   0  0  0  0  0  0  0  0  0  0  0  0
   21.9712   35.8007   43.5154 O   0  0  0  0  0  0  0  0  0  0  0  0
   20.9445   36.6207   40.3522 C   0  0  0  0  0  0  0  0  0  0  0  0
   21.5996   35.3953   39.8055 N   0  3  0  0  0  0  0  0  0  0  0  0
   26.3456   37.4663   42.6972 C   0  0  0  0  0  0  0  0  0  0  0  0
   26.4874   37.6503   40.2650 C   0  0  0  0  0  0  0  0  0  0  0  0
   27.0586   37.8004   41.5431 C   0  0  0  0  0  0  0  0  0  0  0  0
   22.5015   38.0925   40.2370 H   0  0  0  0  0  0  0  0  0  0  0  0
   21.7010   38.0111   41.8081 H   0  0  0  0  0  0  0  0  0  0  0  0
   22.4896   34.2400   41.3309 H   0  0  0  0  0  0  0  0  0  0  0  0
   23.5844   34.7395   40.0137 H   0  0  0  0  0  0  0  0  0  0  0  0
   24.7527   37.0552   39.1311 H   0  0  0  0  0  0  0  0  0  0  0  0
   24.3387   36.6040   44.4998 H   0  0  0  0  0  0  0  0  0  0  0  0
   20.4709   37.1591   39.5259 H   0  0  0  0  0  0  0  0  0  0  0  0
   20.1958   36.3028   41.0817 H   0  0  0  0  0  0  0  0  0  0  0  0
   21.9064   35.5603   38.8368 H   0  0  0  0  0  0  0  0  0  0  0  0
   26.7846   37.5993   43.6811 H   0  0  0  0  0  0  0  0  0  0  0  0
   27.0610   37.9275   39.3834 H   0  0  0  0  0  0  0  0  0  0  0  0
   28.0726   38.1843   41.6293 H   0  0  0  0  0  0  0  0  0  0  0  0
   20.9353   34.6084   39.7767 H   0  0  0  0  0  0  0  0  0  0  0  0
  1  2  1  6  0  0  0
  1  3  1  0  0  0  0
  1  4  1  0  0  0  0
  1  5  1  0  0  0  0
  2  6  2  0  0  0  0
  2  7  1  0  0  0  0
  3  8  1  0  0  0  0
  3  9  2  0  0  0  0
  4 10  1  0  0  0  0
  4 15  1  0  0  0  0
  4 16  1  0  0  0  0
  5 11  1  0  0  0  0
  5 17  1  0  0  0  0
  5 18  1  0  0  0  0
  6  8  1  0  0  0  0
  6 12  1  0  0  0  0
  7 13  2  0  0  0  0
  7 19  1  0  0  0  0
  8 20  1  0  0  0  0
 10 11  1  0  0  0  0
 10 21  1  0  0  0  0
 10 22  1  0  0  0  0
 11 23  1  0  0  0  0
 11 27  1  0  0  0  0
 12 14  2  0  0  0  0
 12 24  1  0  0  0  0
 13 14  1  0  0  0  0
 13 25  1  0  0  0  0
 14 26  1  0  0  0  0
M  CHG  1  11   1
M  END
$$$$
