09O
 OpenBabel04091915523D

 29 30  0  0  0  0  0  0  0  0999 V2000
    3.7023   18.3509   37.8807 C   0  0  0  0  0  0  0  0  0  0  0  0
    4.5700   18.8526   36.7120 C   0  0  0  0  0  0  0  0  0  0  0  0
    5.6028   17.8151   36.3425 N   0  3  0  0  0  0  0  0  0  0  0  0
    6.9176   17.9537   37.0330 C   0  0  0  0  0  0  0  0  0  0  0  0
    6.8995   17.4956   38.4891 C   0  0  0  0  0  0  0  0  0  0  0  0
    5.7102   17.9739   39.3173 C   0  0  0  0  0  0  0  0  0  0  0  0
    4.4628   17.4340   38.7479 N   0  0  0  0  0  0  0  0  0  0  0  0
    2.6048   13.9638   40.1785 C   0  0  0  0  0  0  0  0  0  0  0  0
    1.8616   14.8560   39.5079 N   0  0  0  0  0  0  0  0  0  0  0  0
    2.4990   15.9828   39.1019 C   0  0  0  0  0  0  0  0  0  0  0  0
    3.8571   16.2962   39.2792 C   0  0  0  0  0  0  0  0  0  0  0  0
    4.5666   15.3209   40.0007 C   0  0  0  0  0  0  0  0  0  0  0  0
    3.9452   14.1510   40.4518 C   0  0  0  0  0  0  0  0  0  0  0  0
    2.8564   17.8488   37.4046 H   0  0  0  0  0  0  0  0  0  0  0  0
    3.3011   19.1902   38.4593 H   0  0  0  0  0  0  0  0  0  0  0  0
    5.0943   19.7823   36.9546 H   0  0  0  0  0  0  0  0  0  0  0  0
    3.9499   19.0193   35.8257 H   0  0  0  0  0  0  0  0  0  0  0  0
    5.2085   16.8876   36.5779 H   0  0  0  0  0  0  0  0  0  0  0  0
    7.2337   18.9962   36.9316 H   0  0  0  0  0  0  0  0  0  0  0  0
    7.6198   17.3317   36.4674 H   0  0  0  0  0  0  0  0  0  0  0  0
    7.8235   17.8500   38.9629 H   0  0  0  0  0  0  0  0  0  0  0  0
    6.9465   16.4006   38.5138 H   0  0  0  0  0  0  0  0  0  0  0  0
    5.6839   19.0738   39.3113 H   0  0  0  0  0  0  0  0  0  0  0  0
    5.8363   17.7006   40.3721 H   0  0  0  0  0  0  0  0  0  0  0  0
    2.0751   13.0657   40.5006 H   0  0  0  0  0  0  0  0  0  0  0  0
    1.8125   16.6554   38.6015 H   0  0  0  0  0  0  0  0  0  0  0  0
    5.6270   15.4339   40.2231 H   0  0  0  0  0  0  0  0  0  0  0  0
    4.4970   13.3972   41.0032 H   0  0  0  0  0  0  0  0  0  0  0  0
    5.7453   17.8271   35.3249 H   0  0  0  0  0  0  0  0  0  0  0  0
  1  2  1  0  0  0  0
  1  7  1  0  0  0  0
  1 14  1  0  0  0  0
  1 15  1  0  0  0  0
  2  3  1  0  0  0  0
  2 16  1  0  0  0  0
  2 17  1  0  0  0  0
  3  4  1  0  0  0  0
  3 18  1  0  0  0  0
  3 29  1  0  0  0  0
  4  5  1  0  0  0  0
  4 19  1  0  0  0  0
  4 20  1  0  0  0  0
  5  6  1  0  0  0  0
  5 21  1  0  0  0  0
  5 22  1  0  0  0  0
  6  7  1  0  0  0  0
  6 23  1  0  0  0  0
  6 24  1  0  0  0  0
  7 11  1  0  0  0  0
  8  9  2  0  0  0  0
  8 13  1  0  0  0  0
  8 25  1  0  0  0  0
  9 10  1  0  0  0  0
 10 11  2  0  0  0  0
 10 26  1  0  0  0  0
 11 12  1  0  0  0  0
 12 13  2  0  0  0  0
 12 27  1  0  0  0  0
 13 28  1  0  0  0  0
M  CHG  1   3   1
M  END
$$$$
