09Q
 OpenBabel04091915523D

 39 41  0  0  0  0  0  0  0  0999 V2000
   -8.1236   27.7692   31.9812 C   0  0  0  0  0  0  0  0  0  0  0  0
   -8.2773   28.4158   30.7433 C   0  0  0  0  0  0  0  0  0  0  0  0
   -9.4292   29.1446   30.4521 C   0  0  0  0  0  0  0  0  0  0  0  0
  -10.4464   29.2430   31.3968 C   0  0  0  0  0  0  0  0  0  0  0  0
  -10.3085   28.6138   32.6344 C   0  0  0  0  0  0  0  0  0  0  0  0
   -9.1544   27.8813   32.9240 C   0  0  0  0  0  0  0  0  0  0  0  0
   -4.8543   25.1797   32.4493 C   0  0  0  0  0  0  0  0  0  0  0  0
   -5.7882   27.2724   32.7816 C   0  0  0  0  0  0  0  0  0  0  0  0
   -6.9823   26.8858   32.1996 C   0  0  0  0  0  0  0  0  0  0  0  0
   -7.0577   25.5589   31.7536 C   0  0  0  0  0  0  0  0  0  0  0  0
   -6.0000   24.6487   31.8535 C   0  0  0  0  0  0  0  0  0  0  0  0
   -7.4672   22.7486   31.3365 C   0  0  0  0  0  0  0  0  0  0  0  0
   -8.0188   22.8673   29.9194 C   0  0  0  0  0  0  0  0  0  0  0  0
   -7.4516   21.8268   28.9703 C   0  0  0  0  0  0  0  0  0  0  0  0
   -5.2457   21.3268   30.1631 C   0  0  0  0  0  0  0  0  0  0  0  0
   -4.9583   22.4835   31.1537 C   0  0  0  0  0  0  0  0  0  0  0  0
   -6.1305   23.3505   31.3592 N   0  0  0  0  0  0  0  0  0  0  0  0
   -5.9582   21.8275   28.9271 N   0  3  0  0  0  0  0  0  0  0  0  0
   -4.7196   26.4514   32.9093 N   0  0  0  0  0  0  0  0  0  0  0  0
   -7.5020   28.3284   29.9812 H   0  0  0  0  0  0  0  0  0  0  0  0
   -9.5394   29.6277   29.4830 H   0  0  0  0  0  0  0  0  0  0  0  0
  -11.3493   29.8042   31.1695 H   0  0  0  0  0  0  0  0  0  0  0  0
  -11.1070   28.6855   33.3688 H   0  0  0  0  0  0  0  0  0  0  0  0
   -9.0780   27.3738   33.8843 H   0  0  0  0  0  0  0  0  0  0  0  0
   -3.9591   24.5786   32.5998 H   0  0  0  0  0  0  0  0  0  0  0  0
   -5.6393   28.2843   33.1521 H   0  0  0  0  0  0  0  0  0  0  0  0
   -8.0010   25.2745   31.2817 H   0  0  0  0  0  0  0  0  0  0  0  0
   -7.4358   21.7011   31.6597 H   0  0  0  0  0  0  0  0  0  0  0  0
   -8.1411   23.2287   32.0580 H   0  0  0  0  0  0  0  0  0  0  0  0
   -7.8219   23.8642   29.5060 H   0  0  0  0  0  0  0  0  0  0  0  0
   -9.1086   22.7576   29.9512 H   0  0  0  0  0  0  0  0  0  0  0  0
   -7.7829   22.0476   27.9489 H   0  0  0  0  0  0  0  0  0  0  0  0
   -7.7791   20.8145   29.2257 H   0  0  0  0  0  0  0  0  0  0  0  0
   -5.8644   20.5385   30.6053 H   0  0  0  0  0  0  0  0  0  0  0  0
   -4.3098   20.8729   29.8241 H   0  0  0  0  0  0  0  0  0  0  0  0
   -4.1399   23.0740   30.7191 H   0  0  0  0  0  0  0  0  0  0  0  0
   -4.6050   22.0733   32.1056 H   0  0  0  0  0  0  0  0  0  0  0  0
   -5.6606   21.2604   28.1239 H   0  0  0  0  0  0  0  0  0  0  0  0
   -5.6370   22.7897   28.7365 H   0  0  0  0  0  0  0  0  0  0  0  0
  1  2  2  0  0  0  0
  1  6  1  0  0  0  0
  1  9  1  0  0  0  0
  2  3  1  0  0  0  0
  2 20  1  0  0  0  0
  3  4  2  0  0  0  0
  3 21  1  0  0  0  0
  4  5  1  0  0  0  0
  4 22  1  0  0  0  0
  5  6  2  0  0  0  0
  5 23  1  0  0  0  0
  6 24  1  0  0  0  0
  7 11  2  0  0  0  0
  7 19  1  0  0  0  0
  7 25  1  0  0  0  0
  8  9  1  0  0  0  0
  8 19  2  0  0  0  0
  8 26  1  0  0  0  0
  9 10  2  0  0  0  0
 10 11  1  0  0  0  0
 10 27  1  0  0  0  0
 11 17  1  0  0  0  0
 12 13  1  0  0  0  0
 12 17  1  0  0  0  0
 12 28  1  0  0  0  0
 12 29  1  0  0  0  0
 13 14  1  0  0  0  0
 13 30  1  0  0  0  0
 13 31  1  0  0  0  0
 14 18  1  0  0  0  0
 14 32  1  0  0  0  0
 14 33  1  0  0  0  0
 15 16  1  0  0  0  0
 15 18  1  0  0  0  0
 15 34  1  0  0  0  0
 15 35  1  0  0  0  0
 16 17  1  0  0  0  0
 16 36  1  0  0  0  0
 16 37  1  0  0  0  0
 18 38  1  0  0  0  0
 18 39  1  0  0  0  0
M  CHG  1  18   1
M  END
$$$$
