0CU
 OpenBabel04091916043D

 14 15  0  0  0  0  0  0  0  0999 V2000
   21.1659    0.3017    7.2028 C   0  0  0  0  0  0  0  0  0  0  0  0
   20.2793   -0.6744    6.8598 N   0  3  0  0  0  0  0  0  0  0  0  0
   19.7885   -0.4937    5.6240 N   0  0  0  0  0  0  0  0  0  0  0  0
   20.3403    0.6155    5.1375 N   0  0  0  0  0  0  0  0  0  0  0  0
   21.1842    1.1238    6.0856 C   0  0  0  0  0  0  0  0  0  0  0  0
   21.9962    2.2647    6.0828 C   0  0  0  0  0  0  0  0  0  0  0  0
   22.7649    2.5201    7.2244 C   0  0  0  0  0  0  0  0  0  0  0  0
   23.7688    3.9202    7.2611 Cl  0  0  0  0  0  0  0  0  0  0  0  0
   22.7388    1.6705    8.3366 C   0  0  0  0  0  0  0  0  0  0  0  0
   21.9239    0.5395    8.3402 C   0  0  0  0  0  0  0  0  0  0  0  0
   21.8575   -0.5206    9.6829 Cl  0  0  0  0  0  0  0  0  0  0  0  0
   19.9709   -1.4714    7.4061 H   0  0  0  0  0  0  0  0  0  0  0  0
   22.0193    2.9214    5.2171 H   0  0  0  0  0  0  0  0  0  0  0  0
   23.3569    1.8932    9.2048 H   0  0  0  0  0  0  0  0  0  0  0  0
  1  2  2  0  0  0  0
  1  5  1  0  0  0  0
  1 10  1  0  0  0  0
  2  3  1  0  0  0  0
  2 12  1  0  0  0  0
  3  4  1  0  0  0  0
  4  5  2  0  0  0  0
  5  6  1  0  0  0  0
  6  7  2  0  0  0  0
  6 13  1  0  0  0  0
  7  8  1  0  0  0  0
  7  9  1  0  0  0  0
  9 10  2  0  0  0  0
  9 14  1  0  0  0  0
 10 11  1  0  0  0  0
M  CHG  1   2   1
M  END
$$$$
