0CV
 OpenBabel04091916033D

 46 49  0  0  0  0  0  0  0  0999 V2000
    4.7571   12.1384   41.9717 C   0  0  0  0  0  0  0  0  0  0  0  0
    3.7613   13.5034   40.2738 C   0  0  0  0  0  0  0  0  0  0  0  0
    4.3814   13.0400   42.9773 C   0  0  0  0  0  0  0  0  0  0  0  0
    4.2404   13.7208   45.2873 C   0  0  0  0  0  0  0  0  0  0  0  0
    3.3538   14.4426   41.2271 C   0  0  0  0  0  0  0  0  0  0  0  0
    3.6565   14.2108   42.5877 C   0  0  0  0  0  0  0  0  0  0  0  0
    4.7153   12.7778   44.3489 C   0  0  0  0  0  0  0  0  0  0  0  0
    4.4698   12.3600   40.6254 C   0  0  0  0  0  0  0  0  0  0  0  0
    4.2820   13.8994   46.6985 C   0  0  0  0  0  0  0  0  0  0  0  0
    3.5523   14.8272   44.8368 C   0  0  0  0  0  0  0  0  0  0  0  0
    4.8266   10.4096   45.0135 C   0  0  0  0  0  0  0  0  0  0  0  0
    6.9477   11.7713   44.4572 C   0  0  0  0  0  0  0  0  0  0  0  0
    5.7305    9.4260   45.7874 C   0  0  0  0  0  0  0  0  0  0  0  0
    7.7705   10.7122   45.2154 C   0  0  0  0  0  0  0  0  0  0  0  0
    2.6174   15.6586   40.7329 C   0  0  0  0  0  0  0  0  0  0  0  0
    4.8936   13.0246   47.7323 C   0  0  0  0  0  0  0  0  0  0  0  0
    5.8420   10.5840   39.8064 C   0  0  0  0  0  0  0  0  0  0  0  0
    3.6691   15.0327   47.0715 N   0  0  0  0  0  0  0  0  0  0  0  0
    3.2418   15.5790   45.9284 N   0  3  0  0  0  0  0  0  0  0  0  0
    3.2644   15.0803   43.5357 N   0  3  0  0  0  0  0  0  0  0  0  0
    5.5014   11.7081   44.7792 N   0  0  0  0  0  0  0  0  0  0  0  0
    7.0800    9.3812   45.1197 N   0  3  0  0  0  0  0  0  0  0  0  0
    4.7965   11.5279   39.5949 O   0  0  0  0  0  0  0  0  0  0  0  0
    5.2554   11.2164   42.2469 H   0  0  0  0  0  0  0  0  0  0  0  0
    3.5304   13.6491   39.2136 H   0  0  0  0  0  0  0  0  0  0  0  0
    3.9226   10.5725   45.6104 H   0  0  0  0  0  0  0  0  0  0  0  0
    4.5269    9.9344   44.0710 H   0  0  0  0  0  0  0  0  0  0  0  0
    7.1354   11.6404   43.3845 H   0  0  0  0  0  0  0  0  0  0  0  0
    7.3312   12.7562   44.7454 H   0  0  0  0  0  0  0  0  0  0  0  0
    5.3254    8.4121   45.7869 H   0  0  0  0  0  0  0  0  0  0  0  0
    5.8907    9.7577   46.8191 H   0  0  0  0  0  0  0  0  0  0  0  0
    7.8544   10.9603   46.2792 H   0  0  0  0  0  0  0  0  0  0  0  0
    8.7707   10.5993   44.7875 H   0  0  0  0  0  0  0  0  0  0  0  0
    2.4934   15.6284   39.6436 H   0  0  0  0  0  0  0  0  0  0  0  0
    3.1764   16.5686   40.9712 H   0  0  0  0  0  0  0  0  0  0  0  0
    1.6180   15.7122   41.1747 H   0  0  0  0  0  0  0  0  0  0  0  0
    4.6708   13.4038   48.7352 H   0  0  0  0  0  0  0  0  0  0  0  0
    5.9820   12.9877   47.6149 H   0  0  0  0  0  0  0  0  0  0  0  0
    4.5020   12.0040   47.6708 H   0  0  0  0  0  0  0  0  0  0  0  0
    5.9777   10.0188   38.8780 H   0  0  0  0  0  0  0  0  0  0  0  0
    5.5863    9.8644   40.5902 H   0  0  0  0  0  0  0  0  0  0  0  0
    6.7875   11.0874   40.0362 H   0  0  0  0  0  0  0  0  0  0  0  0
    2.7511   16.4711   45.9911 H   0  0  0  0  0  0  0  0  0  0  0  0
    7.6644    8.6427   45.5363 H   0  0  0  0  0  0  0  0  0  0  0  0
    2.7495   15.9250   43.2938 H   0  0  0  0  0  0  0  0  0  0  0  0
    6.9574    9.1332   44.1295 H   0  0  0  0  0  0  0  0  0  0  0  0
  1  3  1  0  0  0  0
  1  8  2  0  0  0  0
  1 24  1  0  0  0  0
  2  5  2  0  0  0  0
  2  8  1  0  0  0  0
  2 25  1  0  0  0  0
  3  6  1  0  0  0  0
  3  7  2  0  0  0  0
  4  7  1  0  0  0  0
  4  9  2  0  0  0  0
  4 10  1  0  0  0  0
  5  6  1  0  0  0  0
  5 15  1  0  0  0  0
  6 20  2  0  0  0  0
  7 21  1  0  0  0  0
  8 23  1  0  0  0  0
  9 16  1  0  0  0  0
  9 18  1  0  0  0  0
 10 19  2  0  0  0  0
 10 20  1  0  0  0  0
 11 13  1  0  0  0  0
 11 21  1  0  0  0  0
 11 26  1  0  0  0  0
 11 27  1  0  0  0  0
 12 14  1  0  0  0  0
 12 21  1  0  0  0  0
 12 28  1  0  0  0  0
 12 29  1  0  0  0  0
 13 22  1  0  0  0  0
 13 30  1  0  0  0  0
 13 31  1  0  0  0  0
 14 22  1  0  0  0  0
 14 32  1  0  0  0  0
 14 33  1  0  0  0  0
 15 34  1  0  0  0  0
 15 35  1  0  0  0  0
 15 36  1  0  0  0  0
 16 37  1  0  0  0  0
 16 38  1  0  0  0  0
 16 39  1  0  0  0  0
 17 23  1  0  0  0  0
 17 40  1  0  0  0  0
 17 41  1  0  0  0  0
 17 42  1  0  0  0  0
 18 19  1  0  0  0  0
 19 43  1  0  0  0  0
 20 45  1  0  0  0  0
 22 44  1  0  0  0  0
 22 46  1  0  0  0  0
M  CHG  3  19   1  20   1  22   1
M  END
$$$$
