0FZ
 OpenBabel04091916103D

 41 43  0  0  1  0  0  0  0  0999 V2000
   -5.8947   10.6457   10.1744 C   0  0  0  0  0  0  0  0  0  0  0  0
   -6.5976    9.4144   10.3550 O   0  0  0  0  0  0  0  0  0  0  0  0
   -5.8654    8.4386   10.9729 C   0  0  0  0  0  0  0  0  0  0  0  0
   -4.5289    8.5924   11.3272 C   0  0  0  0  0  0  0  0  0  0  0  0
   -6.4987    7.2319   11.2366 C   0  0  0  0  0  0  0  0  0  0  0  0
   -5.8170    6.2136   11.9161 C   0  0  0  0  0  0  0  0  0  0  0  0
   -4.5000    6.4001   12.3775 C   0  0  0  0  0  0  0  0  0  0  0  0
   -3.8429    7.5919   12.0032 C   0  0  0  0  0  0  0  0  0  0  0  0
   -2.3771    7.8370   12.2520 C   0  0  0  0  0  0  0  0  0  0  0  0
   -1.6467    6.5296   12.4332 C   0  0  0  0  0  0  0  0  0  0  0  0
   -2.3439    5.7633   13.4930 N   0  3  0  0  0  0  0  0  0  0  0  0
   -3.6926    5.2797   13.0156 C   0  0  1  0  0  0  0  0  0  0  0  0
   -4.2713    4.3028   14.0129 C   0  0  0  0  0  0  0  0  0  0  0  0
   -5.5896    4.3072   14.4845 C   0  0  0  0  0  0  0  0  0  0  0  0
   -6.0829    3.2320   15.2089 C   0  0  0  0  0  0  0  0  0  0  0  0
   -3.4533    3.2027   14.3830 C   0  0  0  0  0  0  0  0  0  0  0  0
   -3.9120    2.1608   15.1677 C   0  0  0  0  0  0  0  0  0  0  0  0
   -5.2390    2.1585   15.5762 C   0  0  0  0  0  0  0  0  0  0  0  0
   -5.8825    0.9406   16.6709 S   0  0  0  0  0  0  0  0  0  0  0  0
   -5.1796    1.1097   17.9154 O   0  0  0  0  0  0  0  0  0  0  0  0
   -7.3219    0.9756   16.5723 O   0  0  0  0  0  0  0  0  0  0  0  0
   -5.4260   -0.5178   16.0149 N   0  0  0  0  0  0  0  0  0  0  0  0
   -6.5712   11.3900    9.7560 H   0  0  0  0  0  0  0  0  0  0  0  0
   -5.0664   10.5030    9.4690 H   0  0  0  0  0  0  0  0  0  0  0  0
   -5.5237   11.0331   11.1333 H   0  0  0  0  0  0  0  0  0  0  0  0
   -3.9725    9.4840   11.0563 H   0  0  0  0  0  0  0  0  0  0  0  0
   -7.5209    7.0627   10.8983 H   0  0  0  0  0  0  0  0  0  0  0  0
   -6.3302    5.2625   12.0408 H   0  0  0  0  0  0  0  0  0  0  0  0
   -2.2708    8.4684   13.1449 H   0  0  0  0  0  0  0  0  0  0  0  0
   -1.9309    8.3702   11.4041 H   0  0  0  0  0  0  0  0  0  0  0  0
   -0.6070    6.6690   12.7466 H   0  0  0  0  0  0  0  0  0  0  0  0
   -1.6654    5.9122   11.5244 H   0  0  0  0  0  0  0  0  0  0  0  0
   -1.7604    4.9681   13.7413 H   0  0  0  0  0  0  0  0  0  0  0  0
   -3.4545    4.6481   12.1494 H   0  0  0  0  0  0  0  0  0  0  0  0
   -6.2892    5.1225   14.2829 H   0  0  0  0  0  0  0  0  0  0  0  0
   -7.1163    3.2247   15.5298 H   0  0  0  0  0  0  0  0  0  0  0  0
   -2.4230    3.1312   14.0381 H   0  0  0  0  0  0  0  0  0  0  0  0
   -3.2365    1.3532   15.4488 H   0  0  0  0  0  0  0  0  0  0  0  0
   -5.5458   -1.3065   16.6498 H   0  0  0  0  0  0  0  0  0  0  0  0
   -4.7372   -0.5841   15.2748 H   0  0  0  0  0  0  0  0  0  0  0  0
   -2.4597    6.3187   14.3568 H   0  0  0  0  0  0  0  0  0  0  0  0
  1  2  1  0  0  0  0
  1 23  1  0  0  0  0
  1 24  1  0  0  0  0
  1 25  1  0  0  0  0
  2  3  1  0  0  0  0
  3  4  2  0  0  0  0
  3  5  1  0  0  0  0
  4  8  1  0  0  0  0
  4 26  1  0  0  0  0
  5  6  2  0  0  0  0
  5 27  1  0  0  0  0
  6  7  1  0  0  0  0
  6 28  1  0  0  0  0
  7  8  2  0  0  0  0
  7 12  1  0  0  0  0
  8  9  1  0  0  0  0
  9 10  1  0  0  0  0
  9 29  1  0  0  0  0
  9 30  1  0  0  0  0
 10 11  1  0  0  0  0
 10 31  1  0  0  0  0
 10 32  1  0  0  0  0
 11 12  1  0  0  0  0
 11 33  1  0  0  0  0
 11 41  1  0  0  0  0
 12 13  1  0  0  0  0
 12 34  1  6  0  0  0
 13 14  2  0  0  0  0
 13 16  1  0  0  0  0
 14 15  1  0  0  0  0
 14 35  1  0  0  0  0
 15 18  2  0  0  0  0
 15 36  1  0  0  0  0
 16 17  2  0  0  0  0
 16 37  1  0  0  0  0
 17 18  1  0  0  0  0
 17 38  1  0  0  0  0
 18 19  1  0  0  0  0
 19 20  2  0  0  0  0
 19 21  2  0  0  0  0
 19 22  1  0  0  0  0
 22 39  1  0  0  0  0
 22 40  1  0  0  0  0
M  CHG  1  11   1
M  END
$$$$
