11U
 OpenBabel04091913353D

 61 63  0  0  1  0  0  0  0  0999 V2000
   17.3551   -9.0636   12.7644 N   0  0  0  0  0  0  0  0  0  0  0  0
   18.3152   -9.0201   11.7930 C   0  0  0  0  0  0  0  0  0  0  0  0
   18.2738   -8.2680   10.8142 O   0  0  0  0  0  0  0  0  0  0  0  0
   19.5341   -9.8973   11.9728 C   0  0  0  0  0  0  0  0  0  0  0  0
   17.3124   -9.9015   13.9545 C   0  0  0  0  0  0  0  0  0  0  0  0
   15.8428   -9.8980   14.3248 C   0  0  0  0  0  0  0  0  0  0  0  0
   15.4325   -8.4635   14.0075 C   0  0  0  0  0  0  0  0  0  0  0  0
   16.2187   -8.1380   12.7333 C   0  0  1  0  0  0  0  0  0  0  0  0
   16.7737   -6.7047   12.7823 C   0  0  0  0  0  0  0  0  0  0  0  0
   16.0371   -5.7759   12.0849 N   0  0  0  0  0  0  0  0  0  0  0  0
   16.5051   -4.4146   11.9460 C   0  0  0  0  0  0  0  0  0  0  0  0
   17.2086   -4.2023   10.6247 C   0  0  0  0  0  0  0  0  0  0  0  0
   18.3846   -4.8919   10.3048 C   0  0  0  0  0  0  0  0  0  0  0  0
   19.0104   -4.7178    9.0620 C   0  0  0  0  0  0  0  0  0  0  0  0
   18.4914   -3.8277    8.1078 C   0  0  0  0  0  0  0  0  0  0  0  0
   19.1060   -3.6690    6.7638 C   0  0  0  0  0  0  0  0  0  0  0  0
   20.3737   -3.9662    6.5616 N   0  0  0  0  0  0  0  0  0  0  0  0
   18.3831   -3.2368    5.7600 N   0  0  0  0  0  0  0  0  0  0  0  0
   17.3391   -3.1032    8.4630 C   0  0  0  0  0  0  0  0  0  0  0  0
   16.7018   -3.2951    9.6942 C   0  0  0  0  0  0  0  0  0  0  0  0
   17.8169   -6.4306   13.3776 O   0  0  0  0  0  0  0  0  0  0  0  0
   20.7866   -9.1404   11.5921 N   0  3  0  0  0  0  0  0  0  0  0  0
   22.0536   -9.9278   11.7365 C   0  0  0  0  0  0  0  0  0  0  0  0
   21.9181  -11.2284   10.9385 C   0  0  0  0  0  0  0  0  0  0  0  0
   23.2320  -11.9741   10.7934 C   0  0  0  0  0  0  0  0  0  0  0  0
   24.3006  -11.0574   10.2203 C   0  0  0  0  0  0  0  0  0  0  0  0
   24.5136   -9.8637   11.1459 C   0  0  0  0  0  0  0  0  0  0  0  0
   23.2272   -9.0499   11.2876 C   0  0  0  0  0  0  0  0  0  0  0  0
   19.4163  -10.7305   11.2748 H   0  0  0  0  0  0  0  0  0  0  0  0
   19.6818  -10.2461   12.9938 H   0  0  0  0  0  0  0  0  0  0  0  0
   17.9224   -9.4131   14.7241 H   0  0  0  0  0  0  0  0  0  0  0  0
   17.7057  -10.9028   13.7628 H   0  0  0  0  0  0  0  0  0  0  0  0
   15.6659  -10.1819   15.3651 H   0  0  0  0  0  0  0  0  0  0  0  0
   15.2956  -10.5929   13.6756 H   0  0  0  0  0  0  0  0  0  0  0  0
   15.7343   -7.8094   14.8355 H   0  0  0  0  0  0  0  0  0  0  0  0
   14.3527   -8.3548   13.8751 H   0  0  0  0  0  0  0  0  0  0  0  0
   15.6451   -8.3243   11.8194 H   0  0  0  0  0  0  0  0  0  0  0  0
   15.3105   -6.0873   11.4526 H   0  0  0  0  0  0  0  0  0  0  0  0
   17.1778   -4.1497   12.7682 H   0  0  0  0  0  0  0  0  0  0  0  0
   15.6198   -3.7744   12.0215 H   0  0  0  0  0  0  0  0  0  0  0  0
   18.8100   -5.5879   11.0266 H   0  0  0  0  0  0  0  0  0  0  0  0
   19.8952   -5.3175    8.8632 H   0  0  0  0  0  0  0  0  0  0  0  0
   20.8035   -3.8847    5.6479 H   0  0  0  0  0  0  0  0  0  0  0  0
   17.3973   -3.0165    5.8701 H   0  0  0  0  0  0  0  0  0  0  0  0
   18.7601   -3.1028    4.8257 H   0  0  0  0  0  0  0  0  0  0  0  0
   16.9049   -2.3612    7.7976 H   0  0  0  0  0  0  0  0  0  0  0  0
   15.8000   -2.7246    9.9184 H   0  0  0  0  0  0  0  0  0  0  0  0
   20.6444   -8.8032   10.6293 H   0  0  0  0  0  0  0  0  0  0  0  0
   22.1579  -10.1487   12.8052 H   0  0  0  0  0  0  0  0  0  0  0  0
   21.5130  -11.0158    9.9405 H   0  0  0  0  0  0  0  0  0  0  0  0
   21.2097  -11.9004   11.4369 H   0  0  0  0  0  0  0  0  0  0  0  0
   23.0854  -12.8429   10.1427 H   0  0  0  0  0  0  0  0  0  0  0  0
   23.5477  -12.3536   11.7730 H   0  0  0  0  0  0  0  0  0  0  0  0
   23.9907  -10.7055    9.2278 H   0  0  0  0  0  0  0  0  0  0  0  0
   25.2348  -11.6120   10.0929 H   0  0  0  0  0  0  0  0  0  0  0  0
   25.3162   -9.2297   10.7562 H   0  0  0  0  0  0  0  0  0  0  0  0
   24.8335  -10.2190   12.1334 H   0  0  0  0  0  0  0  0  0  0  0  0
   23.3889   -8.2425   12.0120 H   0  0  0  0  0  0  0  0  0  0  0  0
   23.0039   -8.5679   10.3266 H   0  0  0  0  0  0  0  0  0  0  0  0
   20.9740   -4.2627    7.3191 H   0  0  0  0  0  0  0  0  0  0  0  0
   20.8224   -8.2866   12.1693 H   0  0  0  0  0  0  0  0  0  0  0  0
  1  2  1  0  0  0  0
  1  5  1  0  0  0  0
  1  8  1  0  0  0  0
  2  3  2  0  0  0  0
  2  4  1  0  0  0  0
  4 22  1  0  0  0  0
  4 29  1  0  0  0  0
  4 30  1  0  0  0  0
  5  6  1  0  0  0  0
  5 31  1  0  0  0  0
  5 32  1  0  0  0  0
  6  7  1  0  0  0  0
  6 33  1  0  0  0  0
  6 34  1  0  0  0  0
  7  8  1  0  0  0  0
  7 35  1  0  0  0  0
  7 36  1  0  0  0  0
  8  9  1  0  0  0  0
  8 37  1  6  0  0  0
  9 10  1  0  0  0  0
  9 21  2  0  0  0  0
 10 11  1  0  0  0  0
 10 38  1  0  0  0  0
 11 12  1  0  0  0  0
 11 39  1  0  0  0  0
 11 40  1  0  0  0  0
 12 13  2  0  0  0  0
 12 20  1  0  0  0  0
 13 14  1  0  0  0  0
 13 41  1  0  0  0  0
 14 15  2  0  0  0  0
 14 42  1  0  0  0  0
 15 16  1  0  0  0  0
 15 19  1  0  0  0  0
 16 17  2  0  0  0  0
 16 18  1  0  0  0  0
 17 43  1  0  0  0  0
 17 60  1  0  0  0  0
 18 44  1  0  0  0  0
 18 45  1  0  0  0  0
 19 20  2  0  0  0  0
 19 46  1  0  0  0  0
 20 47  1  0  0  0  0
 22 23  1  0  0  0  0
 22 48  1  0  0  0  0
 22 61  1  0  0  0  0
 23 24  1  0  0  0  0
 23 28  1  0  0  0  0
 23 49  1  0  0  0  0
 24 25  1  0  0  0  0
 24 50  1  0  0  0  0
 24 51  1  0  0  0  0
 25 26  1  0  0  0  0
 25 52  1  0  0  0  0
 25 53  1  0  0  0  0
 26 27  1  0  0  0  0
 26 54  1  0  0  0  0
 26 55  1  0  0  0  0
 27 28  1  0  0  0  0
 27 56  1  0  0  0  0
 27 57  1  0  0  0  0
 28 58  1  0  0  0  0
 28 59  1  0  0  0  0
M  CHG  1  22   1
M  END
$$$$
