13P
 OpenBabel04091911063D

 15 14  0  0  0  0  0  0  0  0999 V2000
  -43.0424    4.4023    4.7716 P   0  0  0  0  0  0  0  0  0  0  0  0
  -44.4463    4.5284    5.3557 O   0  0  0  0  0  0  0  0  0  0  0  0
  -41.9308    4.6715    5.7786 O   0  0  0  0  0  0  0  0  0  0  0  0
  -42.8519    5.0394    3.4193 O   0  0  0  0  0  0  0  0  0  0  0  0
  -42.9074    2.7943    4.4789 O   0  0  0  0  0  0  0  0  0  0  0  0
  -43.0654    1.9237    5.5737 C   0  0  0  0  0  0  0  0  0  0  0  0
  -42.3278    0.5986    5.3367 C   0  0  0  0  0  0  0  0  0  0  0  0
  -41.4973    0.4128    4.4316 O   0  0  0  0  0  0  0  0  0  0  0  0
  -42.6022   -0.5483    6.2886 C   0  0  0  0  0  0  0  0  0  0  0  0
  -42.0669   -1.8081    5.8270 O   0  0  0  0  0  0  0  0  0  0  0  0
  -44.1285    1.6904    5.6957 H   0  0  0  0  0  0  0  0  0  0  0  0
  -42.6738    2.3555    6.5002 H   0  0  0  0  0  0  0  0  0  0  0  0
  -43.6765   -0.6959    6.4126 H   0  0  0  0  0  0  0  0  0  0  0  0
  -42.1456   -0.3575    7.2628 H   0  0  0  0  0  0  0  0  0  0  0  0
  -41.1209   -1.6422    5.6398 H   0  0  0  0  0  0  0  0  0  0  0  0
  1  2  2  0  0  0  0
  1  3  1  0  0  0  0
  1  4  1  0  0  0  0
  1  5  1  0  0  0  0
  5  6  1  0  0  0  0
  6  7  1  0  0  0  0
  6 11  1  0  0  0  0
  6 12  1  0  0  0  0
  7  8  2  0  0  0  0
  7  9  1  0  0  0  0
  9 10  1  0  0  0  0
  9 13  1  0  0  0  0
  9 14  1  0  0  0  0
 10 15  1  0  0  0  0
M  END
$$$$
