147
 OpenBabel04091916513D

 36 37  0  0  1  0  0  0  0  0999 V2000
    9.5752    8.6356    9.7664 C   0  0  1  0  0  0  0  0  0  0  0  0
   10.9132    7.9849   10.1449 C   0  0  2  0  0  0  0  0  0  0  0  0
   11.8456    8.9626   10.6426 O   0  0  0  0  0  0  0  0  0  0  0  0
   11.4953    7.3995    8.8492 C   0  0  1  0  0  0  0  0  0  0  0  0
   12.7540    6.7656    9.0962 O   0  0  0  0  0  0  0  0  0  0  0  0
   10.5087    6.4181    8.2151 C   0  0  1  0  0  0  0  0  0  0  0  0
   10.3534    5.3048    9.1099 O   0  0  0  0  0  0  0  0  0  0  0  0
    9.1477    7.1034    7.9801 C   0  0  1  0  0  0  0  0  0  0  0  0
    8.1414    6.0478    7.4950 C   0  0  0  0  0  0  0  0  0  0  0  0
    6.9669    6.6286    6.9453 O   0  0  0  0  0  0  0  0  0  0  0  0
    8.6655    7.6850    9.2036 O   0  0  0  0  0  0  0  0  0  0  0  0
    8.9766    9.2959   10.8969 O   0  0  0  0  0  0  0  0  0  0  0  0
    8.0705   10.2785   10.5643 C   0  0  0  0  0  0  0  0  0  0  0  0
    7.8062   10.6788    9.2445 C   0  0  0  0  0  0  0  0  0  0  0  0
    6.9362   11.7177    8.9600 C   0  0  0  0  0  0  0  0  0  0  0  0
    6.2737   12.3611   10.0099 C   0  0  0  0  0  0  0  0  0  0  0  0
    6.4954   11.9536   11.3362 C   0  0  0  0  0  0  0  0  0  0  0  0
    7.4001   10.9181   11.6068 C   0  0  0  0  0  0  0  0  0  0  0  0
    5.3539   13.4476    9.6755 N   0  0  0  0  0  0  0  0  0  0  0  0
    5.3487   13.8733    8.5182 O   0  0  0  0  0  0  0  0  0  0  0  0
    4.6299   13.8784   10.5902 O   0  0  0  0  0  0  0  0  0  0  0  0
    9.8604    9.3938    9.0269 H   0  0  0  0  0  0  0  0  0  0  0  0
   10.7937    7.2215   10.9200 H   0  0  0  0  0  0  0  0  0  0  0  0
   11.4078    9.3804   11.4091 H   0  0  0  0  0  0  0  0  0  0  0  0
   11.7092    8.2106    8.1401 H   0  0  0  0  0  0  0  0  0  0  0  0
   13.2442    7.3826    9.6722 H   0  0  0  0  0  0  0  0  0  0  0  0
   10.9162    6.0370    7.2718 H   0  0  0  0  0  0  0  0  0  0  0  0
    9.8444    4.6083    8.6663 H   0  0  0  0  0  0  0  0  0  0  0  0
    9.2246    7.9092    7.2380 H   0  0  0  0  0  0  0  0  0  0  0  0
    7.8335    5.4016    8.3238 H   0  0  0  0  0  0  0  0  0  0  0  0
    8.5964    5.4380    6.7077 H   0  0  0  0  0  0  0  0  0  0  0  0
    6.3773    5.8837    6.7259 H   0  0  0  0  0  0  0  0  0  0  0  0
    8.2448   10.2034    8.3770 H   0  0  0  0  0  0  0  0  0  0  0  0
    6.7816   12.0022    7.9230 H   0  0  0  0  0  0  0  0  0  0  0  0
    5.9722   12.4406   12.1588 H   0  0  0  0  0  0  0  0  0  0  0  0
    7.5825   10.6069   12.6338 H   0  0  0  0  0  0  0  0  0  0  0  0
  1  2  1  0  0  0  0
  1 11  1  0  0  0  0
  1 12  1  0  0  0  0
  1 22  1  6  0  0  0
  2  3  1  0  0  0  0
  2  4  1  0  0  0  0
  2 23  1  1  0  0  0
  3 24  1  0  0  0  0
  4  5  1  0  0  0  0
  4  6  1  0  0  0  0
  4 25  1  6  0  0  0
  5 26  1  0  0  0  0
  6  7  1  0  0  0  0
  6  8  1  0  0  0  0
  6 27  1  6  0  0  0
  7 28  1  0  0  0  0
  8  9  1  0  0  0  0
  8 11  1  0  0  0  0
  8 29  1  6  0  0  0
  9 10  1  0  0  0  0
  9 30  1  0  0  0  0
  9 31  1  0  0  0  0
 10 32  1  0  0  0  0
 12 13  1  0  0  0  0
 13 14  2  0  0  0  0
 13 18  1  0  0  0  0
 14 15  1  0  0  0  0
 14 33  1  0  0  0  0
 15 16  2  0  0  0  0
 15 34  1  0  0  0  0
 16 17  1  0  0  0  0
 16 19  1  0  0  0  0
 17 18  2  0  0  0  0
 17 35  1  0  0  0  0
 18 36  1  0  0  0  0
 19 20  2  0  0  0  0
 19 21  2  0  0  0  0
M  END
$$$$
