149
 OpenBabel04091915353D

 22 22  0  0  1  0  0  0  0  0999 V2000
  -11.5764  -26.9074  -25.5012 C   0  0  0  0  0  0  0  0  0  0  0  0
  -10.5424  -27.8962  -24.9979 C   0  0  1  0  0  0  0  0  0  0  0  0
   -9.7319  -28.4650  -26.1417 C   0  0  2  0  0  0  0  0  0  0  0  0
  -10.6724  -28.8929  -27.2620 C   0  0  2  0  0  0  0  0  0  0  0  0
  -11.3670  -27.6652  -27.8276 C   0  0  1  0  0  0  0  0  0  0  0  0
  -12.5078  -28.0551  -28.7737 C   0  0  0  0  0  0  0  0  0  0  0  0
  -12.1046  -26.1222  -24.7007 O   0  0  0  0  0  0  0  0  0  0  0  0
   -9.6406  -27.3357  -24.0127 O   0  0  0  0  0  0  0  0  0  0  0  0
   -8.9849  -29.6094  -25.7012 O   0  0  0  0  0  0  0  0  0  0  0  0
  -11.6413  -29.8075  -26.7301 O   0  0  0  0  0  0  0  0  0  0  0  0
  -11.9236  -26.8298  -26.7919 O   0  0  0  0  0  0  0  0  0  0  0  0
  -12.0073  -28.7549  -29.9077 O   0  0  0  0  0  0  0  0  0  0  0  0
  -11.0602  -28.7166  -24.4785 H   0  0  0  0  0  0  0  0  0  0  0  0
   -9.0189  -27.7178  -26.5088 H   0  0  0  0  0  0  0  0  0  0  0  0
  -10.1023  -29.3976  -28.0438 H   0  0  0  0  0  0  0  0  0  0  0  0
  -10.6359  -27.0760  -28.4022 H   0  0  0  0  0  0  0  0  0  0  0  0
  -13.0632  -27.1727  -29.1011 H   0  0  0  0  0  0  0  0  0  0  0  0
  -13.2193  -28.7078  -28.2556 H   0  0  0  0  0  0  0  0  0  0  0  0
   -9.1558  -26.5965  -24.4187 H   0  0  0  0  0  0  0  0  0  0  0  0
   -8.4121  -29.3366  -24.9633 H   0  0  0  0  0  0  0  0  0  0  0  0
  -12.2121  -30.1120  -27.4588 H   0  0  0  0  0  0  0  0  0  0  0  0
  -11.4028  -28.1575  -30.3894 H   0  0  0  0  0  0  0  0  0  0  0  0
  1  2  1  0  0  0  0
  1  7  2  0  0  0  0
  1 11  1  0  0  0  0
  2  3  1  0  0  0  0
  2  8  1  0  0  0  0
  2 13  1  1  0  0  0
  3  4  1  0  0  0  0
  3  9  1  0  0  0  0
  3 14  1  6  0  0  0
  4  5  1  0  0  0  0
  4 10  1  0  0  0  0
  4 15  1  6  0  0  0
  5  6  1  0  0  0  0
  5 11  1  0  0  0  0
  5 16  1  6  0  0  0
  6 12  1  0  0  0  0
  6 17  1  0  0  0  0
  6 18  1  0  0  0  0
  8 19  1  0  0  0  0
  9 20  1  0  0  0  0
 10 21  1  0  0  0  0
 12 22  1  0  0  0  0
M  END
$$$$
