149
 OpenBabel04091916183D

 22 22  0  0  1  0  0  0  0  0999 V2000
  -11.2983  -26.9722  -25.7146 C   0  0  0  0  0  0  0  0  0  0  0  0
  -10.3278  -28.0135  -25.2037 C   0  0  1  0  0  0  0  0  0  0  0  0
   -9.5905  -28.6567  -26.3527 C   0  0  2  0  0  0  0  0  0  0  0  0
  -10.5767  -29.0822  -27.4392 C   0  0  2  0  0  0  0  0  0  0  0  0
  -11.2477  -27.8437  -28.0096 C   0  0  1  0  0  0  0  0  0  0  0  0
  -12.3995  -28.2184  -28.9541 C   0  0  0  0  0  0  0  0  0  0  0  0
  -11.6556  -26.0494  -24.9641 O   0  0  0  0  0  0  0  0  0  0  0  0
   -9.3321  -27.4777  -24.2918 O   0  0  0  0  0  0  0  0  0  0  0  0
   -8.8320  -29.7810  -25.8811 O   0  0  0  0  0  0  0  0  0  0  0  0
  -11.5873  -29.9479  -26.8906 O   0  0  0  0  0  0  0  0  0  0  0  0
  -11.7808  -27.0010  -26.9619 O   0  0  0  0  0  0  0  0  0  0  0  0
  -11.9092  -28.8115  -30.1524 O   0  0  0  0  0  0  0  0  0  0  0  0
  -10.8762  -28.7743  -24.6262 H   0  0  0  0  0  0  0  0  0  0  0  0
   -8.8756  -27.9392  -26.7721 H   0  0  0  0  0  0  0  0  0  0  0  0
  -10.0400  -29.6198  -28.2214 H   0  0  0  0  0  0  0  0  0  0  0  0
  -10.5134  -27.2654  -28.5901 H   0  0  0  0  0  0  0  0  0  0  0  0
  -13.0122  -27.3497  -29.1954 H   0  0  0  0  0  0  0  0  0  0  0  0
  -13.0712  -28.9397  -28.4774 H   0  0  0  0  0  0  0  0  0  0  0  0
   -8.8299  -26.7868  -24.7621 H   0  0  0  0  0  0  0  0  0  0  0  0
   -8.2410  -29.4705  -25.1656 H   0  0  0  0  0  0  0  0  0  0  0  0
  -12.1673  -30.2284  -27.6189 H   0  0  0  0  0  0  0  0  0  0  0  0
  -11.3551  -28.1487  -30.6114 H   0  0  0  0  0  0  0  0  0  0  0  0
  1  2  1  0  0  0  0
  1  7  2  0  0  0  0
  1 11  1  0  0  0  0
  2  3  1  0  0  0  0
  2  8  1  0  0  0  0
  2 13  1  1  0  0  0
  3  4  1  0  0  0  0
  3  9  1  0  0  0  0
  3 14  1  6  0  0  0
  4  5  1  0  0  0  0
  4 10  1  0  0  0  0
  4 15  1  6  0  0  0
  5  6  1  0  0  0  0
  5 11  1  0  0  0  0
  5 16  1  6  0  0  0
  6 12  1  0  0  0  0
  6 17  1  0  0  0  0
  6 18  1  0  0  0  0
  8 19  1  0  0  0  0
  9 20  1  0  0  0  0
 10 21  1  0  0  0  0
 12 22  1  0  0  0  0
M  END
$$$$
