19B
 OpenBabel04091911373D

 70 75  0  0  0  0  0  0  0  0999 V2000
   41.0202   29.8073   36.1924 O   0  0  0  0  0  0  0  0  0  0  0  0
   40.1469   29.5288   35.4070 C   0  0  0  0  0  0  0  0  0  0  0  0
   39.2791   28.4541   35.5443 N   0  0  0  0  0  0  0  0  0  0  0  0
   39.2791   27.5781   36.6565 C   0  0  0  0  0  0  0  0  0  0  0  0
   39.5584   27.9813   37.9809 C   0  0  0  0  0  0  0  0  0  0  0  0
   39.5442   27.0890   39.0846 C   0  0  0  0  0  0  0  0  0  0  0  0
   39.2205   25.7581   38.7779 C   0  0  0  0  0  0  0  0  0  0  0  0
   38.9440   25.3396   37.4655 C   0  0  0  0  0  0  0  0  0  0  0  0
   38.9607   26.2518   36.4103 C   0  0  0  0  0  0  0  0  0  0  0  0
   39.8130   27.5125   40.3928 N   0  0  0  0  0  0  0  0  0  0  0  0
   40.4550   28.8299   40.5935 C   0  0  0  0  0  0  0  0  0  0  0  0
   40.3210   29.3708   42.0160 C   0  0  0  0  0  0  0  0  0  0  0  0
   40.7163   28.3677   42.9586 O   0  0  0  0  0  0  0  0  0  0  0  0
   39.7671   27.2934   42.9186 C   0  0  0  0  0  0  0  0  0  0  0  0
   39.7332   26.5855   41.5492 C   0  0  0  0  0  0  0  0  0  0  0  0
   40.0404   30.3292   34.1470 C   0  0  0  0  0  0  0  0  0  0  0  0
   38.8364   30.5310   33.4710 C   0  0  0  0  0  0  0  0  0  0  0  0
   38.7970   31.3847   32.3557 C   0  0  0  0  0  0  0  0  0  0  0  0
   39.9528   32.0269   31.9013 C   0  0  0  0  0  0  0  0  0  0  0  0
   39.8957   32.9258   30.6956 C   0  0  0  0  0  0  0  0  0  0  0  0
   41.1618   31.8181   32.5834 C   0  0  0  0  0  0  0  0  0  0  0  0
   41.1947   30.9737   33.7056 C   0  0  0  0  0  0  0  0  0  0  0  0
   42.3832   32.4611   32.1387 C   0  0  0  0  0  0  0  0  0  0  0  0
   43.2516   31.7677   31.2848 C   0  0  0  0  0  0  0  0  0  0  0  0
   44.3983   32.3832   30.8126 C   0  0  0  0  0  0  0  0  0  0  0  0
   44.6763   33.7038   31.2027 C   0  0  0  0  0  0  0  0  0  0  0  0
   43.8170   34.3655   32.0376 C   0  0  0  0  0  0  0  0  0  0  0  0
   44.3005   35.6046   32.2643 O   0  0  0  0  0  0  0  0  0  0  0  0
   42.6563   33.7829   32.5286 C   0  0  0  0  0  0  0  0  0  0  0  0
   45.7316   34.6011   30.9344 C   0  0  0  0  0  0  0  0  0  0  0  0
   45.5164   35.7577   31.5609 N   0  0  0  0  0  0  0  0  0  0  0  0
   46.9399   34.2999   30.0625 C   0  0  0  0  0  0  0  0  0  0  0  0
   47.9070   33.3163   30.7343 C   0  0  0  0  0  0  0  0  0  0  0  0
   48.9187   32.7987   29.7291 C   0  0  0  0  0  0  0  0  0  0  0  0
   49.6888   33.9225   29.1165 N   0  3  0  0  0  0  0  0  0  0  0  0
   48.9361   35.1649   28.7536 C   0  0  0  0  0  0  0  0  0  0  0  0
   47.7797   35.5185   29.6860 C   0  0  0  0  0  0  0  0  0  0  0  0
   38.6400   28.2415   34.7932 H   0  0  0  0  0  0  0  0  0  0  0  0
   39.7696   29.0317   38.1481 H   0  0  0  0  0  0  0  0  0  0  0  0
   39.1984   25.0056   39.5620 H   0  0  0  0  0  0  0  0  0  0  0  0
   38.7123   24.2950   37.2658 H   0  0  0  0  0  0  0  0  0  0  0  0
   38.7691   25.9132   35.3975 H   0  0  0  0  0  0  0  0  0  0  0  0
   39.9790   29.5674   39.9466 H   0  0  0  0  0  0  0  0  0  0  0  0
   41.5202   28.7713   40.3460 H   0  0  0  0  0  0  0  0  0  0  0  0
   39.2894   29.6909   42.2281 H   0  0  0  0  0  0  0  0  0  0  0  0
   40.9718   30.2453   42.1624 H   0  0  0  0  0  0  0  0  0  0  0  0
   38.7735   27.6910   43.1717 H   0  0  0  0  0  0  0  0  0  0  0  0
   40.0493   26.5848   43.7093 H   0  0  0  0  0  0  0  0  0  0  0  0
   40.5547   25.8594   41.5263 H   0  0  0  0  0  0  0  0  0  0  0  0
   38.7837   26.0340   41.5021 H   0  0  0  0  0  0  0  0  0  0  0  0
   37.9163   30.0645   33.8048 H   0  0  0  0  0  0  0  0  0  0  0  0
   37.8538   31.5497   31.8350 H   0  0  0  0  0  0  0  0  0  0  0  0
   38.8786   32.9679   30.2949 H   0  0  0  0  0  0  0  0  0  0  0  0
   40.5596   32.5513   29.9085 H   0  0  0  0  0  0  0  0  0  0  0  0
   40.1994   33.9433   30.9640 H   0  0  0  0  0  0  0  0  0  0  0  0
   42.1383   30.8274   34.2337 H   0  0  0  0  0  0  0  0  0  0  0  0
   43.0162   30.7478   30.9878 H   0  0  0  0  0  0  0  0  0  0  0  0
   45.0743   31.8523   30.1500 H   0  0  0  0  0  0  0  0  0  0  0  0
   41.9780   34.3279   33.1732 H   0  0  0  0  0  0  0  0  0  0  0  0
   46.5683   33.8447   29.1322 H   0  0  0  0  0  0  0  0  0  0  0  0
   47.3709   32.4584   31.1458 H   0  0  0  0  0  0  0  0  0  0  0  0
   48.4350   33.8131   31.5596 H   0  0  0  0  0  0  0  0  0  0  0  0
   48.4197   32.2675   28.9143 H   0  0  0  0  0  0  0  0  0  0  0  0
   49.6468   32.1351   30.2089 H   0  0  0  0  0  0  0  0  0  0  0  0
   50.4581   34.1691   29.7486 H   0  0  0  0  0  0  0  0  0  0  0  0
   48.5633   35.0062   27.7396 H   0  0  0  0  0  0  0  0  0  0  0  0
   49.6781   35.9694   28.7502 H   0  0  0  0  0  0  0  0  0  0  0  0
   48.1755   35.9832   30.5989 H   0  0  0  0  0  0  0  0  0  0  0  0
   47.1511   36.2617   29.1838 H   0  0  0  0  0  0  0  0  0  0  0  0
   50.1370   33.5584   28.2585 H   0  0  0  0  0  0  0  0  0  0  0  0
  1  2  2  0  0  0  0
  2  3  1  0  0  0  0
  2 16  1  0  0  0  0
  3  4  1  0  0  0  0
  3 38  1  0  0  0  0
  4  5  2  0  0  0  0
  4  9  1  0  0  0  0
  5  6  1  0  0  0  0
  5 39  1  0  0  0  0
  6  7  2  0  0  0  0
  6 10  1  0  0  0  0
  7  8  1  0  0  0  0
  7 40  1  0  0  0  0
  8  9  2  0  0  0  0
  8 41  1  0  0  0  0
  9 42  1  0  0  0  0
 10 11  1  0  0  0  0
 10 15  1  0  0  0  0
 11 12  1  0  0  0  0
 11 43  1  0  0  0  0
 11 44  1  0  0  0  0
 12 13  1  0  0  0  0
 12 45  1  0  0  0  0
 12 46  1  0  0  0  0
 13 14  1  0  0  0  0
 14 15  1  0  0  0  0
 14 47  1  0  0  0  0
 14 48  1  0  0  0  0
 15 49  1  0  0  0  0
 15 50  1  0  0  0  0
 16 17  2  0  0  0  0
 16 22  1  0  0  0  0
 17 18  1  0  0  0  0
 17 51  1  0  0  0  0
 18 19  2  0  0  0  0
 18 52  1  0  0  0  0
 19 20  1  0  0  0  0
 19 21  1  0  0  0  0
 20 53  1  0  0  0  0
 20 54  1  0  0  0  0
 20 55  1  0  0  0  0
 21 22  2  0  0  0  0
 21 23  1  0  0  0  0
 22 56  1  0  0  0  0
 23 24  2  0  0  0  0
 23 29  1  0  0  0  0
 24 25  1  0  0  0  0
 24 57  1  0  0  0  0
 25 26  2  0  0  0  0
 25 58  1  0  0  0  0
 26 27  1  0  0  0  0
 26 30  1  0  0  0  0
 27 28  1  0  0  0  0
 27 29  2  0  0  0  0
 28 31  1  0  0  0  0
 29 59  1  0  0  0  0
 30 31  2  0  0  0  0
 30 32  1  0  0  0  0
 32 33  1  0  0  0  0
 32 37  1  0  0  0  0
 32 60  1  0  0  0  0
 33 34  1  0  0  0  0
 33 61  1  0  0  0  0
 33 62  1  0  0  0  0
 34 35  1  0  0  0  0
 34 63  1  0  0  0  0
 34 64  1  0  0  0  0
 35 36  1  0  0  0  0
 35 65  1  0  0  0  0
 35 70  1  0  0  0  0
 36 37  1  0  0  0  0
 36 66  1  0  0  0  0
 36 67  1  0  0  0  0
 37 68  1  0  0  0  0
 37 69  1  0  0  0  0
M  CHG  1  35   1
M  END
$$$$
