1UN
 OpenBabel04091911453D

 86 89  0  0  1  0  0  0  0  0999 V2000
    8.0451    1.6445   13.0854 C   0  0  2  0  0  0  0  0  0  0  0  0
    7.3707    2.4772   11.9695 C   0  0  1  0  0  0  0  0  0  0  0  0
    8.2789    2.6529   10.7343 C   0  0  0  0  0  0  0  0  0  0  0  0
    8.8678    1.3179   10.2778 C   0  0  0  0  0  0  0  0  0  0  0  0
    9.4864    0.5174   11.4282 C   0  0  0  0  0  0  0  0  0  0  0  0
    8.4947    0.2721   12.5589 C   0  0  0  0  0  0  0  0  0  0  0  0
    5.8325    0.8565   13.9122 N   0  3  1  0  0  0  0  0  0  0  0  0
    5.1260    1.6218   12.7906 C   0  0  1  0  0  0  0  0  0  0  0  0
    6.0414    1.8124   11.5811 C   0  0  0  0  0  0  0  0  0  0  0  0
    7.1414    1.4933   14.2969 C   0  0  0  0  0  0  0  0  0  0  0  0
    3.8768    0.8739   12.3104 C   0  0  0  0  0  0  0  0  0  0  0  0
    2.8345    1.7475   12.0115 N   0  0  0  0  0  0  0  0  0  0  0  0
    1.4991    1.3571   11.5642 C   0  0  0  0  0  0  0  0  0  0  0  0
    0.8315    0.4780   12.6235 C   0  0  0  0  0  0  0  0  0  0  0  0
    1.5641    0.5826   10.2402 C   0  0  0  0  0  0  0  0  0  0  0  0
    0.6802    2.6542   11.3899 C   0  0  0  0  0  0  0  0  0  0  0  0
    3.8491   -0.3326   12.2711 O   0  0  0  0  0  0  0  0  0  0  0  0
    4.9675    0.6532   15.1419 C   0  0  0  0  0  0  0  0  0  0  0  0
    5.4629   -0.5620   15.9491 C   0  0  2  0  0  0  0  0  0  0  0  0
    4.8031   -1.9080   15.5690 C   0  0  1  0  0  0  0  0  0  0  0  0
    5.3007   -0.2789   17.3412 O   0  0  0  0  0  0  0  0  0  0  0  0
    5.5524   -2.9770   16.2286 N   0  0  0  0  0  0  0  0  0  0  0  0
    3.3315   -2.0332   15.9636 C   0  0  0  0  0  0  0  0  0  0  0  0
    6.5829   -3.6234   15.5872 C   0  0  0  0  0  0  0  0  0  0  0  0
    6.8824   -3.3733   14.4285 O   0  0  0  0  0  0  0  0  0  0  0  0
    7.3280   -4.5961   16.4281 C   0  0  0  0  0  0  0  0  0  0  0  0
    6.5783   -5.4667   17.2437 C   0  0  0  0  0  0  0  0  0  0  0  0
    7.2082   -6.3933   18.0706 C   0  0  0  0  0  0  0  0  0  0  0  0
    8.5982   -6.4426   18.0880 C   0  0  0  0  0  0  0  0  0  0  0  0
    9.3400   -5.5833   17.2746 C   0  0  0  0  0  0  0  0  0  0  0  0
    8.7342   -4.6354   16.4260 C   0  0  0  0  0  0  0  0  0  0  0  0
   10.7067   -5.6233   17.3004 O   0  0  0  0  0  0  0  0  0  0  0  0
    9.6130   -3.7271   15.6058 C   0  0  0  0  0  0  0  0  0  0  0  0
    2.4762   -3.2550   14.8935 S   0  0  0  0  0  0  0  0  0  0  0  0
    2.6774   -4.7726   15.8138 C   0  0  0  0  0  0  0  0  0  0  0  0
    2.9231   -5.9563   15.1117 C   0  0  0  0  0  0  0  0  0  0  0  0
    3.0482   -7.1681   15.7962 C   0  0  0  0  0  0  0  0  0  0  0  0
    2.9251   -7.2067   17.1858 C   0  0  0  0  0  0  0  0  0  0  0  0
    2.6687   -6.0364   17.8927 C   0  0  0  0  0  0  0  0  0  0  0  0
    2.5354   -4.8299   17.2065 C   0  0  0  0  0  0  0  0  0  0  0  0
    8.9434    2.1761   13.4262 H   0  0  0  0  0  0  0  0  0  0  0  0
    7.1487    3.4803   12.3596 H   0  0  0  0  0  0  0  0  0  0  0  0
    9.0914    3.3612   10.9514 H   0  0  0  0  0  0  0  0  0  0  0  0
    7.7196    3.1117    9.9048 H   0  0  0  0  0  0  0  0  0  0  0  0
    9.6210    1.4908    9.5012 H   0  0  0  0  0  0  0  0  0  0  0  0
    8.0712    0.7284    9.8103 H   0  0  0  0  0  0  0  0  0  0  0  0
   10.3372    1.0755   11.8383 H   0  0  0  0  0  0  0  0  0  0  0  0
    9.8740   -0.4341   11.0550 H   0  0  0  0  0  0  0  0  0  0  0  0
    7.6518   -0.3368   12.2070 H   0  0  0  0  0  0  0  0  0  0  0  0
    8.9532   -0.3188   13.3632 H   0  0  0  0  0  0  0  0  0  0  0  0
    4.8563    2.5939   13.2206 H   0  0  0  0  0  0  0  0  0  0  0  0
    6.2146    0.8462   11.0931 H   0  0  0  0  0  0  0  0  0  0  0  0
    5.5285    2.4163   10.8165 H   0  0  0  0  0  0  0  0  0  0  0  0
    6.9102    2.4617   14.7587 H   0  0  0  0  0  0  0  0  0  0  0  0
    7.6179    0.8720   15.0610 H   0  0  0  0  0  0  0  0  0  0  0  0
    2.9757    2.7363   12.1684 H   0  0  0  0  0  0  0  0  0  0  0  0
   -0.1720    0.1710   12.3037 H   0  0  0  0  0  0  0  0  0  0  0  0
    0.7447    1.0055   13.5810 H   0  0  0  0  0  0  0  0  0  0  0  0
    1.4106   -0.4326   12.8049 H   0  0  0  0  0  0  0  0  0  0  0  0
    0.5615    0.3012    9.8961 H   0  0  0  0  0  0  0  0  0  0  0  0
    2.1355   -0.3462   10.3482 H   0  0  0  0  0  0  0  0  0  0  0  0
    2.0440    1.1686    9.4502 H   0  0  0  0  0  0  0  0  0  0  0  0
   -0.3367    2.4564   11.0380 H   0  0  0  0  0  0  0  0  0  0  0  0
    1.1593    3.3376   10.6775 H   0  0  0  0  0  0  0  0  0  0  0  0
    0.6008    3.2034   12.3392 H   0  0  0  0  0  0  0  0  0  0  0  0
    3.9157    0.5681   14.8597 H   0  0  0  0  0  0  0  0  0  0  0  0
    5.0591    1.5717   15.7384 H   0  0  0  0  0  0  0  0  0  0  0  0
    6.5402   -0.6914   15.7896 H   0  0  0  0  0  0  0  0  0  0  0  0
    4.9134   -2.0277   14.4827 H   0  0  0  0  0  0  0  0  0  0  0  0
    5.7859    0.5410   17.5518 H   0  0  0  0  0  0  0  0  0  0  0  0
    5.4120   -3.1145   17.2252 H   0  0  0  0  0  0  0  0  0  0  0  0
    2.7987   -1.0888   15.8447 H   0  0  0  0  0  0  0  0  0  0  0  0
    3.2527   -2.3092   17.0146 H   0  0  0  0  0  0  0  0  0  0  0  0
    5.4916   -5.4523   17.2181 H   0  0  0  0  0  0  0  0  0  0  0  0
    6.6218   -7.0676   18.6875 H   0  0  0  0  0  0  0  0  0  0  0  0
    9.0890   -7.1677   18.7281 H   0  0  0  0  0  0  0  0  0  0  0  0
   10.9899   -6.3323   17.9066 H   0  0  0  0  0  0  0  0  0  0  0  0
    9.0657   -3.0132   14.9943 H   0  0  0  0  0  0  0  0  0  0  0  0
   10.2476   -4.3140   14.9287 H   0  0  0  0  0  0  0  0  0  0  0  0
   10.2641   -3.1300   16.2574 H   0  0  0  0  0  0  0  0  0  0  0  0
    3.0167   -5.9483   14.0254 H   0  0  0  0  0  0  0  0  0  0  0  0
    3.2368   -8.0850   15.2430 H   0  0  0  0  0  0  0  0  0  0  0  0
    3.0201   -8.1519   17.7141 H   0  0  0  0  0  0  0  0  0  0  0  0
    2.5618   -6.0606   18.9764 H   0  0  0  0  0  0  0  0  0  0  0  0
    2.2997   -3.9424   17.7828 H   0  0  0  0  0  0  0  0  0  0  0  0
    5.9925   -0.0890   13.5198 H   0  0  0  0  0  0  0  0  0  0  0  0
  1  2  1  0  0  0  0
  1  6  1  0  0  0  0
  1 10  1  0  0  0  0
  1 41  1  1  0  0  0
  2  3  1  0  0  0  0
  2  9  1  0  0  0  0
  2 42  1  1  0  0  0
  3  4  1  0  0  0  0
  3 43  1  0  0  0  0
  3 44  1  0  0  0  0
  4  5  1  0  0  0  0
  4 45  1  0  0  0  0
  4 46  1  0  0  0  0
  5  6  1  0  0  0  0
  5 47  1  0  0  0  0
  5 48  1  0  0  0  0
  6 49  1  0  0  0  0
  6 50  1  0  0  0  0
  7  8  1  0  0  0  0
  7 10  1  0  0  0  0
  7 18  1  0  0  0  0
  7 86  1  6  0  0  0
  8  9  1  0  0  0  0
  8 11  1  0  0  0  0
  8 51  1  1  0  0  0
  9 52  1  0  0  0  0
  9 53  1  0  0  0  0
 10 54  1  0  0  0  0
 10 55  1  0  0  0  0
 11 12  1  0  0  0  0
 11 17  2  0  0  0  0
 12 13  1  0  0  0  0
 12 56  1  0  0  0  0
 13 14  1  0  0  0  0
 13 15  1  0  0  0  0
 13 16  1  0  0  0  0
 14 57  1  0  0  0  0
 14 58  1  0  0  0  0
 14 59  1  0  0  0  0
 15 60  1  0  0  0  0
 15 61  1  0  0  0  0
 15 62  1  0  0  0  0
 16 63  1  0  0  0  0
 16 64  1  0  0  0  0
 16 65  1  0  0  0  0
 18 19  1  0  0  0  0
 18 66  1  0  0  0  0
 18 67  1  0  0  0  0
 19 20  1  0  0  0  0
 19 21  1  0  0  0  0
 19 68  1  6  0  0  0
 20 22  1  0  0  0  0
 20 23  1  0  0  0  0
 20 69  1  6  0  0  0
 21 70  1  0  0  0  0
 22 24  1  0  0  0  0
 22 71  1  0  0  0  0
 23 34  1  0  0  0  0
 23 72  1  0  0  0  0
 23 73  1  0  0  0  0
 24 25  2  0  0  0  0
 24 26  1  0  0  0  0
 26 27  2  0  0  0  0
 26 31  1  0  0  0  0
 27 28  1  0  0  0  0
 27 74  1  0  0  0  0
 28 29  2  0  0  0  0
 28 75  1  0  0  0  0
 29 30  1  0  0  0  0
 29 76  1  0  0  0  0
 30 31  2  0  0  0  0
 30 32  1  0  0  0  0
 31 33  1  0  0  0  0
 32 77  1  0  0  0  0
 33 78  1  0  0  0  0
 33 79  1  0  0  0  0
 33 80  1  0  0  0  0
 34 35  1  0  0  0  0
 35 36  2  0  0  0  0
 35 40  1  0  0  0  0
 36 37  1  0  0  0  0
 36 81  1  0  0  0  0
 37 38  2  0  0  0  0
 37 82  1  0  0  0  0
 38 39  1  0  0  0  0
 38 83  1  0  0  0  0
 39 40  2  0  0  0  0
 39 84  1  0  0  0  0
 40 85  1  0  0  0  0
M  CHG  1   7   1
M  END
$$$$
