22A
 OpenBabel04091913243D

 32 33  0  0  1  0  0  0  0  0999 V2000
   13.5827    8.6142   55.8118 N   0  3  0  0  0  0  0  0  0  0  0  0
   12.8217    8.9757   56.8984 C   0  0  0  0  0  0  0  0  0  0  0  0
   12.9440   10.0877   57.5564 N   0  0  0  0  0  0  0  0  0  0  0  0
   13.9066   10.9843   57.0457 C   0  0  2  0  0  0  0  0  0  0  0  0
   14.6867   10.7180   55.9634 C   0  0  2  0  0  0  0  0  0  0  0  0
   14.5530    9.4687   55.2629 C   0  0  0  0  0  0  0  0  0  0  0  0
   15.2228    9.1206   54.3351 O   0  0  0  0  0  0  0  0  0  0  0  0
   15.5908   11.7637   55.7984 N   0  3  0  0  0  0  0  0  0  0  0  0
   15.2740   12.7103   56.7694 C   0  0  0  0  0  0  0  0  0  0  0  0
   14.2346   12.2507   57.5599 C   0  0  2  0  0  0  0  0  0  0  0  0
   14.6364   12.8345   59.8462 N   0  3  0  0  0  0  0  0  0  0  0  0
   13.6626   12.9500   58.7313 C   0  0  0  0  0  0  0  0  0  0  0  0
   14.8228   11.4905   60.4735 C   0  0  0  0  0  0  0  0  0  0  0  0
   13.9528   11.3912   61.7269 C   0  0  0  0  0  0  0  0  0  0  0  0
   16.2993   11.1855   60.8201 C   0  0  0  0  0  0  0  0  0  0  0  0
   17.1517   12.3280   60.7635 O   0  0  0  0  0  0  0  0  0  0  0  0
   13.9601   12.5921   62.4873 O   0  0  0  0  0  0  0  0  0  0  0  0
   13.4253    7.7351   55.3362 H   0  0  0  0  0  0  0  0  0  0  0  0
   12.0796    8.2282   57.2016 H   0  0  0  0  0  0  0  0  0  0  0  0
   16.3761   11.8190   55.1447 H   0  0  0  0  0  0  0  0  0  0  0  0
   15.7947   13.6574   56.8523 H   0  0  0  0  0  0  0  0  0  0  0  0
   15.5605   13.1255   59.4994 H   0  0  0  0  0  0  0  0  0  0  0  0
   12.7037   12.5436   59.0659 H   0  0  0  0  0  0  0  0  0  0  0  0
   13.5359   14.0290   58.5379 H   0  0  0  0  0  0  0  0  0  0  0  0
   14.4914   10.7411   59.7600 H   0  0  0  0  0  0  0  0  0  0  0  0
   14.3343   10.5852   62.3596 H   0  0  0  0  0  0  0  0  0  0  0  0
   12.9317   11.1546   61.4297 H   0  0  0  0  0  0  0  0  0  0  0  0
   16.6669   10.4451   60.1020 H   0  0  0  0  0  0  0  0  0  0  0  0
   16.3483   10.7516   61.8233 H   0  0  0  0  0  0  0  0  0  0  0  0
   18.0590   12.0282   61.0106 H   0  0  0  0  0  0  0  0  0  0  0  0
   13.5478   13.3241   62.0106 H   0  0  0  0  0  0  0  0  0  0  0  0
   14.3969   13.4946   60.5783 H   0  0  0  0  0  0  0  0  0  0  0  0
  1  2  1  0  0  0  0
  1  6  1  0  0  0  0
  1 18  1  0  0  0  0
  2  3  1  0  0  0  0
  2 19  1  0  0  0  0
  4  3  1  1  0  0  0
  4  5  1  0  0  0  0
  4 10  1  0  0  0  0
  5  6  1  1  0  0  0
  5  8  1  0  0  0  0
  6  7  2  0  0  0  0
  8  9  1  0  0  0  0
  8 20  1  0  0  0  0
  9 10  1  0  0  0  0
  9 21  1  0  0  0  0
 10 12  1  1  0  0  0
 11 12  1  0  0  0  0
 11 13  1  0  0  0  0
 11 22  1  0  0  0  0
 11 32  1  0  0  0  0
 12 23  1  0  0  0  0
 12 24  1  0  0  0  0
 13 14  1  0  0  0  0
 13 15  1  0  0  0  0
 13 25  1  0  0  0  0
 14 17  1  0  0  0  0
 14 26  1  0  0  0  0
 14 27  1  0  0  0  0
 15 16  1  0  0  0  0
 15 28  1  0  0  0  0
 15 29  1  0  0  0  0
 16 30  1  0  0  0  0
 17 31  1  0  0  0  0
M  CHG  3   1   1   8   1  11   1
M  END
$$$$
