2AN
 OpenBabel04091911133D

 33 35  0  0  0  0  0  0  0  0999 V2000
  -24.2116   -0.7181   -4.1647 C   0  0  0  0  0  0  0  0  0  0  0  0
  -24.3328   -1.9111   -4.9127 C   0  0  0  0  0  0  0  0  0  0  0  0
  -25.3654   -2.8036   -4.7074 C   0  0  0  0  0  0  0  0  0  0  0  0
  -26.3292   -2.4914   -3.7678 C   0  0  0  0  0  0  0  0  0  0  0  0
  -26.2742   -1.2948   -3.0307 C   0  0  0  0  0  0  0  0  0  0  0  0
  -27.3138   -1.0518   -2.1239 C   0  0  0  0  0  0  0  0  0  0  0  0
  -27.3568    0.1097   -1.3650 C   0  0  0  0  0  0  0  0  0  0  0  0
  -26.3567    1.0576   -1.5086 C   0  0  0  0  0  0  0  0  0  0  0  0
  -23.1594    0.1484   -4.4901 N   0  0  0  0  0  0  0  0  0  0  0  0
  -24.0710    2.2112   -2.4665 S   0  0  0  0  0  0  0  0  0  0  0  0
  -25.3003    0.8494   -2.4073 C   0  0  0  0  0  0  0  0  0  0  0  0
  -25.2108   -0.3529   -3.2022 C   0  0  0  0  0  0  0  0  0  0  0  0
  -22.4446    0.2154   -5.6769 C   0  0  0  0  0  0  0  0  0  0  0  0
  -21.3938   -0.6689   -5.9102 C   0  0  0  0  0  0  0  0  0  0  0  0
  -20.7100   -0.6230   -7.1128 C   0  0  0  0  0  0  0  0  0  0  0  0
  -21.0430    0.3477   -8.0618 C   0  0  0  0  0  0  0  0  0  0  0  0
  -22.0528    1.2757   -7.8011 C   0  0  0  0  0  0  0  0  0  0  0  0
  -22.7447    1.2174   -6.5978 C   0  0  0  0  0  0  0  0  0  0  0  0
  -24.3971    3.0467   -1.3056 O   0  0  0  0  0  0  0  0  0  0  0  0
  -24.3449    2.8317   -3.7593 O   0  0  0  0  0  0  0  0  0  0  0  0
  -22.7938    1.5150   -2.3502 O   0  0  0  0  0  0  0  0  0  0  0  0
  -23.5894   -2.1575   -5.6633 H   0  0  0  0  0  0  0  0  0  0  0  0
  -25.4079   -3.7191   -5.2845 H   0  0  0  0  0  0  0  0  0  0  0  0
  -27.1456   -3.1954   -3.6235 H   0  0  0  0  0  0  0  0  0  0  0  0
  -28.1175   -1.7749   -2.0021 H   0  0  0  0  0  0  0  0  0  0  0  0
  -28.1650    0.2870   -0.6662 H   0  0  0  0  0  0  0  0  0  0  0  0
  -26.3956    1.9714   -0.9227 H   0  0  0  0  0  0  0  0  0  0  0  0
  -22.7825    0.7311   -3.7341 H   0  0  0  0  0  0  0  0  0  0  0  0
  -21.1596   -1.4153   -5.1547 H   0  0  0  0  0  0  0  0  0  0  0  0
  -19.9284   -1.3473   -7.3066 H   0  0  0  0  0  0  0  0  0  0  0  0
  -20.5091    0.3832   -9.0036 H   0  0  0  0  0  0  0  0  0  0  0  0
  -22.3112    2.0398   -8.5270 H   0  0  0  0  0  0  0  0  0  0  0  0
  -23.5399    1.9275   -6.3702 H   0  0  0  0  0  0  0  0  0  0  0  0
  1  2  2  0  0  0  0
  1  9  1  0  0  0  0
  1 12  1  0  0  0  0
  2  3  1  0  0  0  0
  2 22  1  0  0  0  0
  3  4  2  0  0  0  0
  3 23  1  0  0  0  0
  4  5  1  0  0  0  0
  4 24  1  0  0  0  0
  5  6  2  0  0  0  0
  5 12  1  0  0  0  0
  6  7  1  0  0  0  0
  6 25  1  0  0  0  0
  7  8  2  0  0  0  0
  7 26  1  0  0  0  0
  8 11  1  0  0  0  0
  8 27  1  0  0  0  0
  9 13  1  0  0  0  0
  9 28  1  0  0  0  0
 10 11  1  0  0  0  0
 10 19  2  0  0  0  0
 10 20  2  0  0  0  0
 10 21  1  0  0  0  0
 11 12  2  0  0  0  0
 13 14  2  0  0  0  0
 13 18  1  0  0  0  0
 14 15  1  0  0  0  0
 14 29  1  0  0  0  0
 15 16  2  0  0  0  0
 15 30  1  0  0  0  0
 16 17  1  0  0  0  0
 16 31  1  0  0  0  0
 17 18  2  0  0  0  0
 17 32  1  0  0  0  0
 18 33  1  0  0  0  0
M  END
$$$$
