2MQ
 OpenBabel04091912423D

 36 38  0  0  0  0  0  0  0  0999 V2000
   17.7939   17.0010   23.1820 C   0  0  0  0  0  0  0  0  0  0  0  0
   18.8654   17.3672   23.6746 O   0  0  0  0  0  0  0  0  0  0  0  0
   16.7187   16.6848   23.9471 N   0  3  0  0  0  0  0  0  0  0  0  0
   15.5431   16.2463   23.4146 C   0  0  0  0  0  0  0  0  0  0  0  0
   14.5695   15.9519   24.2960 N   0  0  0  0  0  0  0  0  0  0  0  0
   15.3403   16.1078   22.1427 N   0  0  0  0  0  0  0  0  0  0  0  0
   16.3624   16.4826   21.2484 C   0  0  0  0  0  0  0  0  0  0  0  0
   16.1074   16.4702   19.8563 C   0  0  0  0  0  0  0  0  0  0  0  0
   14.8066   16.0290   19.2390 C   0  0  0  0  0  0  0  0  0  0  0  0
   14.9297   14.6147   18.6718 C   0  0  0  0  0  0  0  0  0  0  0  0
   13.9087   14.4020   17.6066 N   0  3  0  0  0  0  0  0  0  0  0  0
   17.1508   16.9026   19.0076 C   0  0  0  0  0  0  0  0  0  0  0  0
   17.1442   17.0089   17.6398 N   0  0  0  0  0  0  0  0  0  0  0  0
   18.3312   17.4695   17.3231 C   0  0  0  0  0  0  0  0  0  0  0  0
   18.8403   17.7736   16.1256 N   0  0  0  0  0  0  0  0  0  0  0  0
   18.0573   17.6056   14.9263 C   0  0  0  0  0  0  0  0  0  0  0  0
   19.1178   17.6232   18.4317 N   0  3  0  0  0  0  0  0  0  0  0  0
   18.3786   17.2749   19.5276 C   0  0  0  0  0  0  0  0  0  0  0  0
   18.6700   17.2843   20.8835 C   0  0  0  0  0  0  0  0  0  0  0  0
   17.6147   16.9046   21.7273 C   0  0  0  0  0  0  0  0  0  0  0  0
   13.6739   15.6745   23.9217 H   0  0  0  0  0  0  0  0  0  0  0  0
   14.6531   16.0972   25.2915 H   0  0  0  0  0  0  0  0  0  0  0  0
   14.5540   16.7284   18.4274 H   0  0  0  0  0  0  0  0  0  0  0  0
   13.9723   16.0893   19.9441 H   0  0  0  0  0  0  0  0  0  0  0  0
   14.7461   13.8569   19.4390 H   0  0  0  0  0  0  0  0  0  0  0  0
   15.8979   14.4181   18.2012 H   0  0  0  0  0  0  0  0  0  0  0  0
   13.9702   13.4557   17.2090 H   0  0  0  0  0  0  0  0  0  0  0  0
   12.9555   14.5335   17.9652 H   0  0  0  0  0  0  0  0  0  0  0  0
   19.7863   18.1153   16.0026 H   0  0  0  0  0  0  0  0  0  0  0  0
   18.6693   17.8737   14.0617 H   0  0  0  0  0  0  0  0  0  0  0  0
   17.1735   18.2517   14.9291 H   0  0  0  0  0  0  0  0  0  0  0  0
   17.7387   16.5658   14.8046 H   0  0  0  0  0  0  0  0  0  0  0  0
   20.0684   17.9588   18.4368 H   0  0  0  0  0  0  0  0  0  0  0  0
   19.6326   17.6065   21.2651 H   0  0  0  0  0  0  0  0  0  0  0  0
   16.8454   16.7653   24.9434 H   0  0  0  0  0  0  0  0  0  0  0  0
   14.0553   15.0661   16.8333 H   0  0  0  0  0  0  0  0  0  0  0  0
  1  2  2  0  0  0  0
  1  3  1  0  0  0  0
  1 20  1  0  0  0  0
  3  4  1  0  0  0  0
  3 35  1  0  0  0  0
  4  5  1  0  0  0  0
  4  6  2  0  0  0  0
  5 21  1  0  0  0  0
  5 22  1  0  0  0  0
  6  7  1  0  0  0  0
  7  8  2  0  0  0  0
  7 20  1  0  0  0  0
  8  9  1  0  0  0  0
  8 12  1  0  0  0  0
  9 10  1  0  0  0  0
  9 23  1  0  0  0  0
  9 24  1  0  0  0  0
 10 11  1  0  0  0  0
 10 25  1  0  0  0  0
 10 26  1  0  0  0  0
 11 27  1  0  0  0  0
 11 28  1  0  0  0  0
 11 36  1  0  0  0  0
 12 13  1  0  0  0  0
 12 18  2  0  0  0  0
 13 14  1  0  0  0  0
 14 15  1  0  0  0  0
 14 17  2  0  0  0  0
 15 16  1  0  0  0  0
 15 29  1  0  0  0  0
 16 30  1  0  0  0  0
 16 31  1  0  0  0  0
 16 32  1  0  0  0  0
 17 18  1  0  0  0  0
 17 33  1  0  0  0  0
 18 19  1  0  0  0  0
 19 20  2  0  0  0  0
 19 34  1  0  0  0  0
M  CHG  3   3   1  11   1  17   1
M  END
$$$$
