2P0
 OpenBabel04091914533D

 29 29  0  0  1  0  0  0  0  0999 V2000
  -25.1343  -23.2696  -18.3795 C   0  0  0  0  0  0  0  0  0  0  0  0
  -27.1155  -22.3770  -19.7654 N   0  0  0  0  0  0  0  0  0  0  0  0
  -24.6079  -23.2023  -17.2267 O   0  0  0  0  0  0  0  0  0  0  0  0
  -26.5939  -22.7151  -18.4467 C   0  0  1  0  0  0  0  0  0  0  0  0
  -27.5091  -23.8582  -17.9636 C   0  0  0  0  0  0  0  0  0  0  0  0
  -27.9091  -23.4617  -20.3190 C   0  0  0  0  0  0  0  0  0  0  0  0
  -28.4881  -24.1487  -19.1024 C   0  0  0  0  0  0  0  0  0  0  0  0
  -27.0979  -21.2809  -21.7149 O   0  0  0  0  0  0  0  0  0  0  0  0
  -25.5172  -14.6397  -19.8493 O   0  0  0  0  0  0  0  0  0  0  0  0
  -23.5210  -18.1366  -22.1618 O   0  0  0  0  0  0  0  0  0  0  0  0
  -23.9297  -15.7712  -18.2525 O   0  0  0  0  0  0  0  0  0  0  0  0
  -23.1765  -15.2000  -20.6341 O   0  0  0  0  0  0  0  0  0  0  0  0
  -23.2227  -18.9737  -19.6803 O   0  0  0  0  0  0  0  0  0  0  0  0
  -25.7276  -20.2465  -19.9809 C   0  0  0  0  0  0  0  0  0  0  0  0
  -25.3192  -19.3683  -21.0142 O   0  0  0  0  0  0  0  0  0  0  0  0
  -24.8968  -17.0425  -20.2279 O   0  0  0  0  0  0  0  0  0  0  0  0
  -26.6743  -21.3294  -20.5613 C   0  0  0  0  0  0  0  0  0  0  0  0
  -24.3270  -15.6025  -19.7198 P   0  0  0  0  0  0  0  0  0  0  0  0
  -24.0750  -18.3273  -20.7541 P   0  0  2  0  0  0  0  0  0  0  0  0
  -24.7089  -23.8622  -19.4148 O   0  0  0  0  0  0  0  0  0  0  0  0
  -26.7015  -21.8312  -17.8114 H   0  0  0  0  0  0  0  0  0  0  0  0
  -28.0653  -23.5519  -17.0685 H   0  0  0  0  0  0  0  0  0  0  0  0
  -26.9558  -24.7663  -17.6991 H   0  0  0  0  0  0  0  0  0  0  0  0
  -27.2643  -24.1468  -20.8817 H   0  0  0  0  0  0  0  0  0  0  0  0
  -28.6830  -23.0822  -20.9846 H   0  0  0  0  0  0  0  0  0  0  0  0
  -29.4699  -23.7266  -18.8669 H   0  0  0  0  0  0  0  0  0  0  0  0
  -28.6342  -25.2280  -19.2637 H   0  0  0  0  0  0  0  0  0  0  0  0
  -26.3045  -19.6745  -19.2585 H   0  0  0  0  0  0  0  0  0  0  0  0
  -24.8740  -20.7310  -19.5042 H   0  0  0  0  0  0  0  0  0  0  0  0
  1  3  2  0  0  0  0
  1  4  1  0  0  0  0
  1 20  1  0  0  0  0
  2  4  1  0  0  0  0
  2  6  1  0  0  0  0
  2 17  1  0  0  0  0
  4  5  1  0  0  0  0
  4 21  1  1  0  0  0
  5  7  1  0  0  0  0
  5 22  1  0  0  0  0
  5 23  1  0  0  0  0
  6  7  1  0  0  0  0
  6 24  1  0  0  0  0
  6 25  1  0  0  0  0
  7 26  1  0  0  0  0
  7 27  1  0  0  0  0
  8 17  2  0  0  0  0
  9 18  2  0  0  0  0
 11 18  1  0  0  0  0
 12 18  1  0  0  0  0
 13 19  1  0  0  0  0
 14 15  1  0  0  0  0
 14 17  1  0  0  0  0
 14 28  1  0  0  0  0
 14 29  1  0  0  0  0
 15 19  1  0  0  0  0
 16 18  1  0  0  0  0
 16 19  1  0  0  0  0
 19 10  2  6  0  0  0
M  END
$$$$
