2SD
 OpenBabel04091912553D

 49 50  0  0  1  0  0  0  0  0999 V2000
   18.6830    6.3002    9.8673 O   0  0  0  0  0  0  0  0  0  0  0  0
   17.6047    7.2543    9.8689 C   0  0  2  0  0  0  0  0  0  0  0  0
   18.0222    8.5757   10.5513 C   0  0  1  0  0  0  0  0  0  0  0  0
   18.9682    9.2800    9.7223 O   0  0  0  0  0  0  0  0  0  0  0  0
   16.8374    9.4807   11.0040 C   0  0  1  0  0  0  0  0  0  0  0  0
   16.6596   10.5919   10.1367 O   0  0  0  0  0  0  0  0  0  0  0  0
   15.5236    8.7205   11.2632 C   0  0  1  0  0  0  0  0  0  0  0  0
   14.2341    9.4624   11.5249 C   0  0  0  0  0  0  0  0  0  0  0  0
   13.9030   10.4225   10.5265 O   0  0  0  0  0  0  0  0  0  0  0  0
   15.3232    7.5704   10.4342 O   0  0  0  0  0  0  0  0  0  0  0  0
   16.4113    6.6488   10.6001 C   0  0  2  0  0  0  0  0  0  0  0  0
   16.6664    6.5796   12.0031 O   0  0  0  0  0  0  0  0  0  0  0  0
   17.1614    5.6052   12.8528 C   0  0  2  0  0  0  0  0  0  0  0  0
   16.9505    4.1267   12.5385 C   0  0  2  0  0  0  0  0  0  0  0  0
   16.2689    3.9237   11.3091 O   0  0  0  0  0  0  0  0  0  0  0  0
   16.3419    3.2576   13.6612 C   0  0  1  0  0  0  0  0  0  0  0  0
   16.9127    1.9289   13.4646 O   0  0  0  0  0  0  0  0  0  0  0  0
   16.6803    3.7285   15.0786 C   0  0  2  0  0  0  0  0  0  0  0  0
   15.6250    2.8645   16.3631 S   0  0  0  0  0  0  0  0  0  0  0  0
   16.2283    3.1198   17.6689 O   0  0  0  0  0  0  0  0  0  0  0  0
   14.2349    3.1488   16.1467 O   0  0  0  0  0  0  0  0  0  0  0  0
   15.8586    1.2457   16.1030 N   0  0  0  0  0  0  0  0  0  0  0  0
   16.6507    5.1196   15.3312 O   0  0  0  0  0  0  0  0  0  0  0  0
   16.7563    6.0578   14.2891 C   0  0  2  0  0  0  0  0  0  0  0  0
   15.4270    6.8028   14.3277 C   0  0  0  0  0  0  0  0  0  0  0  0
   15.3714    7.7528   15.3750 O   0  0  0  0  0  0  0  0  0  0  0  0
   18.8743    6.1002   10.7972 H   0  0  0  0  0  0  0  0  0  0  0  0
   17.3400    7.4533    8.8238 H   0  0  0  0  0  0  0  0  0  0  0  0
   18.5973    8.3078   11.4469 H   0  0  0  0  0  0  0  0  0  0  0  0
   19.1582   10.1326   10.1421 H   0  0  0  0  0  0  0  0  0  0  0  0
   17.1393    9.9085   11.9631 H   0  0  0  0  0  0  0  0  0  0  0  0
   16.2040   11.2658   10.6608 H   0  0  0  0  0  0  0  0  0  0  0  0
   15.7314    8.3722   12.2456 H   0  0  0  0  0  0  0  0  0  0  0  0
   14.2908    9.9803   12.5002 H   0  0  0  0  0  0  0  0  0  0  0  0
   13.3955    8.7599   11.6053 H   0  0  0  0  0  0  0  0  0  0  0  0
   14.5395   11.1089   10.4816 H   0  0  0  0  0  0  0  0  0  0  0  0
   16.1223    5.6997   10.1562 H   0  0  0  0  0  0  0  0  0  0  0  0
   18.2506    5.7380   12.8288 H   0  0  0  0  0  0  0  0  0  0  0  0
   17.9626    3.7443   12.3443 H   0  0  0  0  0  0  0  0  0  0  0  0
   16.2266    2.9710   11.0930 H   0  0  0  0  0  0  0  0  0  0  0  0
   15.2628    3.1543   13.4964 H   0  0  0  0  0  0  0  0  0  0  0  0
   17.8869    2.0060   13.4903 H   0  0  0  0  0  0  0  0  0  0  0  0
   17.6947    3.4234   15.3217 H   0  0  0  0  0  0  0  0  0  0  0  0
   15.3430    0.5912   16.6808 H   0  0  0  0  0  0  0  0  0  0  0  0
   16.3814    0.9246   15.2913 H   0  0  0  0  0  0  0  0  0  0  0  0
   17.5417    6.7465   14.6409 H   0  0  0  0  0  0  0  0  0  0  0  0
   14.5708    6.1193   14.3780 H   0  0  0  0  0  0  0  0  0  0  0  0
   15.2449    7.3785   13.4645 H   0  0  0  0  0  0  0  0  0  0  0  0
   15.4312    7.2484   16.2264 H   0  0  0  0  0  0  0  0  0  0  0  0
  1  2  1  0  0  0  0
  1 27  1  0  0  0  0
  2  3  1  0  0  0  0
  2 11  1  0  0  0  0
  2 28  1  6  0  0  0
  3  4  1  0  0  0  0
  3  5  1  0  0  0  0
  3 29  1  1  0  0  0
  4 30  1  0  0  0  0
  5  6  1  0  0  0  0
  5  7  1  0  0  0  0
  5 31  1  1  0  0  0
  6 32  1  0  0  0  0
  7  8  1  0  0  0  0
  7 10  1  0  0  0  0
  7 33  1  1  0  0  0
  8  9  1  0  0  0  0
  8 34  1  0  0  0  0
  8 35  1  0  0  0  0
  9 36  1  0  0  0  0
 10 11  1  0  0  0  0
 11 12  1  0  0  0  0
 11 37  1  6  0  0  0
 12 13  1  0  0  0  0
 13 14  1  0  0  0  0
 13 24  1  0  0  0  0
 13 38  1  6  0  0  0
 14 15  1  0  0  0  0
 14 16  1  0  0  0  0
 14 39  1  6  0  0  0
 15 40  1  0  0  0  0
 16 17  1  0  0  0  0
 16 18  1  0  0  0  0
 16 41  1  6  0  0  0
 17 42  1  0  0  0  0
 18 19  1  0  0  0  0
 18 23  1  0  0  0  0
 18 43  1  1  0  0  0
 19 20  2  0  0  0  0
 19 21  2  0  0  0  0
 19 22  1  0  0  0  0
 22 44  1  0  0  0  0
 22 45  1  0  0  0  0
 23 24  1  0  0  0  0
 24 25  1  0  0  0  0
 24 46  1  1  0  0  0
 25 26  1  0  0  0  0
 25 47  1  0  0  0  0
 25 48  1  0  0  0  0
 26 49  1  0  0  0  0
M  END
$$$$
