3BS
 OpenBabel04091911403D

 50 51  0  0  1  0  0  0  0  0999 V2000
   -2.4950    9.5202   12.0876 C   0  0  0  0  0  0  0  0  0  0  0  0
   -1.7265   10.7966   12.5060 C   0  0  0  0  0  0  0  0  0  0  0  0
   -2.0270   11.1281   13.9987 C   0  0  0  0  0  0  0  0  0  0  0  0
   -2.3005   12.0324   11.7692 C   0  0  0  0  0  0  0  0  0  0  0  0
   -0.2564   10.6477   12.2559 N   0  3  2  0  0  0  0  0  0  0  0  0
   -0.0799   10.5289   10.8544 O   0  0  0  0  0  0  0  0  0  0  0  0
    0.3852    9.4494   12.8868 C   0  0  0  0  0  0  0  0  0  0  0  0
    0.4272    9.5623   14.4409 C   0  0  0  0  0  0  0  0  0  0  0  0
    1.8925    9.3712   12.5255 C   0  0  0  0  0  0  0  0  0  0  0  0
   -0.3544    8.1511   12.4769 C   0  0  0  0  0  0  0  0  0  0  0  0
   -1.8564    8.2950   12.7322 C   0  0  2  0  0  0  0  0  0  0  0  0
   -2.5761    7.0708   12.3938 N   0  0  0  0  0  0  0  0  0  0  0  0
   -2.9925    6.1596   13.3403 C   0  0  0  0  0  0  0  0  0  0  0  0
   -2.8333    6.3686   15.0138 S   0  0  0  0  0  0  0  0  0  0  0  0
   -3.5268    5.0214   12.7529 N   0  0  0  0  0  0  0  0  0  0  0  0
   -4.1757    4.0554   13.5486 C   0  0  0  0  0  0  0  0  0  0  0  0
   -5.4685    4.2403   14.0590 C   0  0  0  0  0  0  0  0  0  0  0  0
   -5.9477    3.3620   15.0321 C   0  0  0  0  0  0  0  0  0  0  0  0
   -6.4623    5.5748   13.5900 Cl  0  0  0  0  0  0  0  0  0  0  0  0
   -3.3621    3.0201   14.0230 C   0  0  0  0  0  0  0  0  0  0  0  0
   -3.8403    2.1532   14.9963 C   0  0  0  0  0  0  0  0  0  0  0  0
   -5.1352    2.3265   15.5012 C   0  0  0  0  0  0  0  0  0  0  0  0
   -5.8104    1.2105   16.7038 S   0  0  0  0  0  0  0  0  0  0  0  0
   -7.2160    1.2209   16.5732 O   0  0  0  0  0  0  0  0  0  0  0  0
   -5.1427    1.4762   17.9447 O   0  0  0  0  0  0  0  0  0  0  0  0
   -5.3100   -0.2790   16.1877 N   0  0  0  0  0  0  0  0  0  0  0  0
   -2.5182    9.3925   10.9984 H   0  0  0  0  0  0  0  0  0  0  0  0
   -3.5457    9.6007   12.3976 H   0  0  0  0  0  0  0  0  0  0  0  0
   -1.3498   11.9050   14.3736 H   0  0  0  0  0  0  0  0  0  0  0  0
   -1.9778   10.2792   14.6719 H   0  0  0  0  0  0  0  0  0  0  0  0
   -3.0562   11.4623   14.1463 H   0  0  0  0  0  0  0  0  0  0  0  0
   -2.2739   11.9363   10.6803 H   0  0  0  0  0  0  0  0  0  0  0  0
   -1.7443   12.9348   12.0520 H   0  0  0  0  0  0  0  0  0  0  0  0
   -3.3491   12.1903   12.0480 H   0  0  0  0  0  0  0  0  0  0  0  0
    1.1114    8.8420   14.8910 H   0  0  0  0  0  0  0  0  0  0  0  0
   -0.5061    9.3157   14.9362 H   0  0  0  0  0  0  0  0  0  0  0  0
    0.7320   10.5705   14.7524 H   0  0  0  0  0  0  0  0  0  0  0  0
    2.3785    8.5538   13.0707 H   0  0  0  0  0  0  0  0  0  0  0  0
    2.3983   10.3025   12.8131 H   0  0  0  0  0  0  0  0  0  0  0  0
    2.0751    9.1972   11.4624 H   0  0  0  0  0  0  0  0  0  0  0  0
    0.0464    7.2950   13.0361 H   0  0  0  0  0  0  0  0  0  0  0  0
   -0.1848    7.9099   11.4182 H   0  0  0  0  0  0  0  0  0  0  0  0
   -1.9814    8.4345   13.7987 H   0  0  0  0  0  0  0  0  0  0  0  0
   -2.6212    6.8655   11.4047 H   0  0  0  0  0  0  0  0  0  0  0  0
   -3.7723    5.0655   11.7722 H   0  0  0  0  0  0  0  0  0  0  0  0
   -6.9374    3.5239   15.4588 H   0  0  0  0  0  0  0  0  0  0  0  0
   -2.3292    2.9622   13.6919 H   0  0  0  0  0  0  0  0  0  0  0  0
   -3.1791    1.3767   15.3830 H   0  0  0  0  0  0  0  0  0  0  0  0
   -5.5207   -1.0578   16.8078 H   0  0  0  0  0  0  0  0  0  0  0  0
   -4.7201   -0.3943   15.3795 H   0  0  0  0  0  0  0  0  0  0  0  0
  1  2  1  0  0  0  0
  1 11  1  0  0  0  0
  1 27  1  0  0  0  0
  1 28  1  0  0  0  0
  2  3  1  0  0  0  0
  2  4  1  0  0  0  0
  2  5  1  0  0  0  0
  3 29  1  0  0  0  0
  3 30  1  0  0  0  0
  3 31  1  0  0  0  0
  4 32  1  0  0  0  0
  4 33  1  0  0  0  0
  4 34  1  0  0  0  0
  5  6  1  6  0  0  0
  5  7  1  0  0  0  0
  7  8  1  0  0  0  0
  7  9  1  0  0  0  0
  7 10  1  0  0  0  0
  8 35  1  0  0  0  0
  8 36  1  0  0  0  0
  8 37  1  0  0  0  0
  9 38  1  0  0  0  0
  9 39  1  0  0  0  0
  9 40  1  0  0  0  0
 10 11  1  0  0  0  0
 10 41  1  0  0  0  0
 10 42  1  0  0  0  0
 11 12  1  0  0  0  0
 11 43  1  1  0  0  0
 12 13  1  0  0  0  0
 12 44  1  0  0  0  0
 13 14  2  0  0  0  0
 13 15  1  0  0  0  0
 15 16  1  0  0  0  0
 15 45  1  0  0  0  0
 16 17  2  0  0  0  0
 16 20  1  0  0  0  0
 17 18  1  0  0  0  0
 17 19  1  0  0  0  0
 18 22  2  0  0  0  0
 18 46  1  0  0  0  0
 20 21  2  0  0  0  0
 20 47  1  0  0  0  0
 21 22  1  0  0  0  0
 21 48  1  0  0  0  0
 22 23  1  0  0  0  0
 23 24  2  0  0  0  0
 23 25  2  0  0  0  0
 23 26  1  0  0  0  0
 26 49  1  0  0  0  0
 26 50  1  0  0  0  0
M  CHG  1   5   1
M  END
$$$$
