3C4
 OpenBabel04091911363D

 18 18  0  0  0  0  0  0  0  0999 V2000
   10.1875  -23.7922   21.3234 O   0  0  0  0  0  0  0  0  0  0  0  0
    9.7273  -23.5480   20.1665 C   0  0  0  0  0  0  0  0  0  0  0  0
    8.5634  -23.7360   19.7310 O   0  0  0  0  0  0  0  0  0  0  0  0
   10.7573  -22.9249   19.2183 C   0  0  0  0  0  0  0  0  0  0  0  0
   10.3435  -22.8072   17.7750 C   0  0  0  0  0  0  0  0  0  0  0  0
    9.4871  -21.7768   17.3639 C   0  0  0  0  0  0  0  0  0  0  0  0
    9.0569  -21.6940   16.0366 C   0  0  0  0  0  0  0  0  0  0  0  0
    9.5070  -22.6356   15.1107 C   0  0  0  0  0  0  0  0  0  0  0  0
    9.1004  -22.5448   13.8060 O   0  0  0  0  0  0  0  0  0  0  0  0
   10.9509  -24.8364   14.3836 Cl  0  0  0  0  0  0  0  0  0  0  0  0
   10.3601  -23.6681   15.5101 C   0  0  0  0  0  0  0  0  0  0  0  0
   10.7744  -23.7540   16.8380 C   0  0  0  0  0  0  0  0  0  0  0  0
   11.6749  -23.5244   19.2777 H   0  0  0  0  0  0  0  0  0  0  0  0
   11.0268  -21.9279   19.5927 H   0  0  0  0  0  0  0  0  0  0  0  0
    9.1210  -21.0657   18.1032 H   0  0  0  0  0  0  0  0  0  0  0  0
    8.3465  -20.9209   15.7667 H   0  0  0  0  0  0  0  0  0  0  0  0
    9.4109  -21.6857   13.4803 H   0  0  0  0  0  0  0  0  0  0  0  0
   11.4194  -24.5682   17.1581 H   0  0  0  0  0  0  0  0  0  0  0  0
  1  2  2  0  0  0  0
  2  3  1  0  0  0  0
  2  4  1  0  0  0  0
  4  5  1  0  0  0  0
  4 13  1  0  0  0  0
  4 14  1  0  0  0  0
  5  6  2  0  0  0  0
  5 12  1  0  0  0  0
  6  7  1  0  0  0  0
  6 15  1  0  0  0  0
  7  8  2  0  0  0  0
  7 16  1  0  0  0  0
  8  9  1  0  0  0  0
  8 11  1  0  0  0  0
  9 17  1  0  0  0  0
 10 11  1  0  0  0  0
 11 12  2  0  0  0  0
 12 18  1  0  0  0  0
M  END
$$$$
