3F5
 OpenBabel04091913433D

 44 46  0  0  1  0  0  0  0  0999 V2000
   18.1949   -5.4277   -2.6042 N   0  0  0  0  0  0  0  0  0  0  0  0
   16.9339   -5.5006   -2.1133 C   0  0  0  0  0  0  0  0  0  0  0  0
   16.4347   -4.9177   -1.0078 N   0  0  0  0  0  0  0  0  0  0  0  0
   19.0962   -4.6711   -1.9379 C   0  0  0  0  0  0  0  0  0  0  0  0
   17.2500   -3.4457    0.7594 N   0  3  0  0  0  0  0  0  0  0  0  0
   18.4826   -2.8895    1.0395 C   0  0  0  0  0  0  0  0  0  0  0  0
   19.3660   -3.2177    0.1213 N   0  0  0  0  0  0  0  0  0  0  0  0
   18.6892   -4.0250   -0.7636 C   0  0  0  0  0  0  0  0  0  0  0  0
   17.3714   -4.1896   -0.3806 C   0  0  0  0  0  0  0  0  0  0  0  0
   20.3761   -4.5293   -2.4336 N   0  0  0  0  0  0  0  0  0  0  0  0
   16.0219   -3.3247    1.5024 C   0  0  2  0  0  0  0  0  0  0  0  0
   15.7124   -1.9365    1.7099 O   0  0  0  0  0  0  0  0  0  0  0  0
   14.8909   -1.8628    2.8932 C   0  0  1  0  0  0  0  0  0  0  0  0
   14.9498   -3.2273    3.5927 C   0  0  2  0  0  0  0  0  0  0  0  0
   16.0585   -3.9841    2.8779 C   0  0  1  0  0  0  0  0  0  0  0  0
   15.3913   -0.7322    3.7858 C   0  0  0  0  0  0  0  0  0  0  0  0
   16.7298   -1.0243    4.1813 O   0  0  0  0  0  0  0  0  0  0  0  0
   15.7796   -5.3898    2.8620 O   0  0  0  0  0  0  0  0  0  0  0  0
   13.7080   -3.9216    3.3932 O   0  0  0  0  0  0  0  0  0  0  0  0
   18.7104   -2.1283    2.1286 N   0  0  0  0  0  0  0  0  0  0  0  0
   19.9580   -1.4073    2.2263 C   0  0  0  0  0  0  0  0  0  0  0  0
   17.1790   -0.1879    5.2401 C   0  0  0  0  0  0  0  0  0  0  0  0
   18.1740   -0.9844    6.0764 C   0  0  0  0  0  0  0  0  0  0  0  0
   18.0426   -2.1762    6.3377 O   0  0  0  0  0  0  0  0  0  0  0  0
   19.2441   -0.2863    6.5505 N   0  0  0  0  0  0  0  0  0  0  0  0
   16.2358   -6.0994   -2.6903 H   0  0  0  0  0  0  0  0  0  0  0  0
   21.0444   -4.0770   -1.8214 H   0  0  0  0  0  0  0  0  0  0  0  0
   20.6707   -5.1535   -3.1648 H   0  0  0  0  0  0  0  0  0  0  0  0
   15.2081   -3.7396    0.8918 H   0  0  0  0  0  0  0  0  0  0  0  0
   13.8745   -1.6323    2.5566 H   0  0  0  0  0  0  0  0  0  0  0  0
   15.1134   -3.1620    4.6737 H   0  0  0  0  0  0  0  0  0  0  0  0
   17.0101   -3.8271    3.3894 H   0  0  0  0  0  0  0  0  0  0  0  0
   14.7401   -0.6616    4.6649 H   0  0  0  0  0  0  0  0  0  0  0  0
   15.3862    0.2226    3.2492 H   0  0  0  0  0  0  0  0  0  0  0  0
   15.0150   -5.5278    2.2720 H   0  0  0  0  0  0  0  0  0  0  0  0
   13.8207   -4.7793    3.8496 H   0  0  0  0  0  0  0  0  0  0  0  0
   17.9614   -1.8031    2.7415 H   0  0  0  0  0  0  0  0  0  0  0  0
   19.9598   -0.7952    3.1347 H   0  0  0  0  0  0  0  0  0  0  0  0
   20.1023   -0.7362    1.3718 H   0  0  0  0  0  0  0  0  0  0  0  0
   20.8054   -2.0980    2.2857 H   0  0  0  0  0  0  0  0  0  0  0  0
   16.3595    0.1068    5.9063 H   0  0  0  0  0  0  0  0  0  0  0  0
   17.6433    0.7069    4.8162 H   0  0  0  0  0  0  0  0  0  0  0  0
   19.9435   -0.8147    7.0572 H   0  0  0  0  0  0  0  0  0  0  0  0
   19.4491    0.6688    6.2935 H   0  0  0  0  0  0  0  0  0  0  0  0
  1  2  2  0  0  0  0
  1  4  1  0  0  0  0
  2  3  1  0  0  0  0
  2 26  1  0  0  0  0
  3  9  2  0  0  0  0
  4  8  2  0  0  0  0
  4 10  1  0  0  0  0
  5  6  2  0  0  0  0
  5  9  1  0  0  0  0
  5 11  1  0  0  0  0
  6  7  1  0  0  0  0
  6 20  1  0  0  0  0
  7  8  1  0  0  0  0
  8  9  1  0  0  0  0
 10 27  1  0  0  0  0
 10 28  1  0  0  0  0
 11 12  1  0  0  0  0
 11 15  1  0  0  0  0
 11 29  1  6  0  0  0
 12 13  1  0  0  0  0
 13 14  1  0  0  0  0
 13 16  1  0  0  0  0
 13 30  1  6  0  0  0
 14 15  1  0  0  0  0
 14 19  1  0  0  0  0
 14 31  1  1  0  0  0
 15 18  1  0  0  0  0
 15 32  1  1  0  0  0
 16 17  1  0  0  0  0
 16 33  1  0  0  0  0
 16 34  1  0  0  0  0
 17 22  1  0  0  0  0
 18 35  1  0  0  0  0
 19 36  1  0  0  0  0
 20 21  1  0  0  0  0
 20 37  1  0  0  0  0
 21 38  1  0  0  0  0
 21 39  1  0  0  0  0
 21 40  1  0  0  0  0
 22 23  1  0  0  0  0
 22 41  1  0  0  0  0
 22 42  1  0  0  0  0
 23 24  2  0  0  0  0
 23 25  1  0  0  0  0
 25 43  1  0  0  0  0
 25 44  1  0  0  0  0
M  CHG  1   5   1
M  END
$$$$
