3GV
 OpenBabel04091912493D

 26 27  0  0  1  0  0  0  0  0999 V2000
   10.6957   46.0216   27.6270 O   0  0  0  0  0  0  0  0  0  0  0  0
   11.5760   45.7288   26.8223 C   0  0  0  0  0  0  0  0  0  0  0  0
   11.6680   46.2239   25.4201 C   0  0  0  0  0  0  0  0  0  0  0  0
   12.7057   44.9556   27.0891 N   0  0  0  0  0  0  0  0  0  0  0  0
   13.5543   44.7530   25.9383 C   0  0  0  0  0  0  0  0  0  0  0  0
   12.7612   45.3762   24.7984 C   0  0  1  0  0  0  0  0  0  0  0  0
   12.2262   44.2117   23.9883 C   0  0  0  0  0  0  0  0  0  0  0  0
   11.0278   43.8774   24.2077 O   0  0  0  0  0  0  0  0  0  0  0  0
   13.0371   43.7304   23.1581 O   0  0  0  0  0  0  0  0  0  0  0  0
   13.0204   44.4531   28.3626 C   0  0  0  0  0  0  0  0  0  0  0  0
   13.0416   43.0786   28.6121 C   0  0  0  0  0  0  0  0  0  0  0  0
   12.6973   42.1486   27.6716 O   0  0  0  0  0  0  0  0  0  0  0  0
   13.3251   42.5960   29.8833 C   0  0  0  0  0  0  0  0  0  0  0  0
   13.5896   43.4881   30.9220 C   0  0  0  0  0  0  0  0  0  0  0  0
   13.5705   44.8639   30.6896 C   0  0  0  0  0  0  0  0  0  0  0  0
   13.2746   45.3457   29.4121 C   0  0  0  0  0  0  0  0  0  0  0  0
   11.9544   47.2715   25.4495 H   0  0  0  0  0  0  0  0  0  0  0  0
   10.7010   46.1202   24.9285 H   0  0  0  0  0  0  0  0  0  0  0  0
   13.7953   43.6922   25.8120 H   0  0  0  0  0  0  0  0  0  0  0  0
   14.4959   45.2937   26.1068 H   0  0  0  0  0  0  0  0  0  0  0  0
   13.4230   45.9817   24.1544 H   0  0  0  0  0  0  0  0  0  0  0  0
   11.9199   42.5042   27.1954 H   0  0  0  0  0  0  0  0  0  0  0  0
   13.3067   41.5264   30.0606 H   0  0  0  0  0  0  0  0  0  0  0  0
   13.8001   43.1063   31.9154 H   0  0  0  0  0  0  0  0  0  0  0  0
   13.7805   45.5572   31.4978 H   0  0  0  0  0  0  0  0  0  0  0  0
   13.2643   46.4191   29.2342 H   0  0  0  0  0  0  0  0  0  0  0  0
  1  2  2  0  0  0  0
  2  3  1  0  0  0  0
  2  4  1  0  0  0  0
  3  6  1  0  0  0  0
  3 17  1  0  0  0  0
  3 18  1  0  0  0  0
  4  5  1  0  0  0  0
  4 10  1  0  0  0  0
  5  6  1  0  0  0  0
  5 19  1  0  0  0  0
  5 20  1  0  0  0  0
  6  7  1  0  0  0  0
  6 21  1  6  0  0  0
  7  8  2  0  0  0  0
  7  9  1  0  0  0  0
 10 11  2  0  0  0  0
 10 16  1  0  0  0  0
 11 12  1  0  0  0  0
 11 13  1  0  0  0  0
 12 22  1  0  0  0  0
 13 14  2  0  0  0  0
 13 23  1  0  0  0  0
 14 15  1  0  0  0  0
 14 24  1  0  0  0  0
 15 16  2  0  0  0  0
 15 25  1  0  0  0  0
 16 26  1  0  0  0  0
M  END
$$$$
