3HU
 OpenBabel04091915103D

 38 40  0  0  1  0  0  0  0  0999 V2000
   42.3999   59.2866    8.0473 C   0  0  0  0  0  0  0  0  0  0  0  0
   42.0577   57.0881    6.7944 N   0  3  0  0  0  0  0  0  0  0  0  0
   41.2224   58.9668    8.4133 O   0  0  0  0  0  0  0  0  0  0  0  0
   42.9814   58.2809    7.0113 C   0  0  1  0  0  0  0  0  0  0  0  0
   43.2360   58.9194    5.6534 C   0  0  0  0  0  0  0  0  0  0  0  0
   49.1774   54.5635    5.5824 O   0  0  0  0  0  0  0  0  0  0  0  0
   45.6726   55.3407    2.2046 O   0  0  0  0  0  0  0  0  0  0  0  0
   45.7538   57.9612    5.9572 O   0  0  0  0  0  0  0  0  0  0  0  0
   51.2088   55.5068    5.8454 O   0  0  0  0  0  0  0  0  0  0  0  0
   49.3753   58.9683    3.5111 C   0  0  0  0  0  0  0  0  0  0  0  0
   48.1939   58.2690    3.5075 C   0  0  0  0  0  0  0  0  0  0  0  0
   43.0717   56.1318    1.6628 C   0  0  0  0  0  0  0  0  0  0  0  0
   41.9086   57.7567    3.1813 C   0  0  0  0  0  0  0  0  0  0  0  0
   47.1255   56.0779    4.3216 C   0  0  0  0  0  0  0  0  0  0  0  0
   41.5309   56.8836    1.7446 S   0  0  0  0  0  0  0  0  0  0  0  0
   50.5930   58.0889    4.3264 S   0  0  0  0  0  0  0  0  0  0  0  0
   50.0127   55.5158    5.4300 C   0  0  0  0  0  0  0  0  0  0  0  0
   48.2698   57.0177    4.1833 C   0  0  0  0  0  0  0  0  0  0  0  0
   49.5456   56.7598    4.6803 C   0  0  0  0  0  0  0  0  0  0  0  0
   45.1576   56.1602    2.9799 C   0  0  0  0  0  0  0  0  0  0  0  0
   45.1868   57.5462    4.9584 C   0  0  0  0  0  0  0  0  0  0  0  0
   43.8305   56.5620    2.7341 C   0  0  0  0  0  0  0  0  0  0  0  0
   43.1964   57.4695    3.5877 C   0  0  0  0  0  0  0  0  0  0  0  0
   45.7869   56.6502    4.0816 N   0  3  0  0  0  0  0  0  0  0  0  0
   43.8562   57.9601    4.6971 N   0  3  0  0  0  0  0  0  0  0  0  0
   43.1504   60.1988    8.3792 O   0  0  0  0  0  0  0  0  0  0  0  0
   42.4630   56.4448    6.1266 H   0  0  0  0  0  0  0  0  0  0  0  0
   41.9005   56.6597    7.7117 H   0  0  0  0  0  0  0  0  0  0  0  0
   43.9131   57.8718    7.4081 H   0  0  0  0  0  0  0  0  0  0  0  0
   43.8946   59.7829    5.7618 H   0  0  0  0  0  0  0  0  0  0  0  0
   42.2831   59.2808    5.2337 H   0  0  0  0  0  0  0  0  0  0  0  0
   49.5374   59.9410    3.0658 H   0  0  0  0  0  0  0  0  0  0  0  0
   47.2957   58.6379    3.0480 H   0  0  0  0  0  0  0  0  0  0  0  0
   43.3772   55.4309    0.8796 H   0  0  0  0  0  0  0  0  0  0  0  0
   41.2074   58.4266    3.6559 H   0  0  0  0  0  0  0  0  0  0  0  0
   47.1527   55.6872    5.3307 H   0  0  0  0  0  0  0  0  0  0  0  0
   47.3279   55.2778    3.6039 H   0  0  0  0  0  0  0  0  0  0  0  0
   41.1542   57.4635    6.4824 H   0  0  0  0  0  0  0  0  0  0  0  0
  1  3  2  0  0  0  0
  1  4  1  0  0  0  0
  1 26  1  0  0  0  0
  2  4  1  0  0  0  0
  2 27  1  0  0  0  0
  2 28  1  0  0  0  0
  2 38  1  0  0  0  0
  4  5  1  0  0  0  0
  4 29  1  1  0  0  0
  5 25  1  0  0  0  0
  5 30  1  0  0  0  0
  5 31  1  0  0  0  0
  6 17  2  0  0  0  0
  7 20  2  0  0  0  0
  8 21  2  0  0  0  0
  9 17  1  0  0  0  0
 10 11  2  0  0  0  0
 10 16  1  0  0  0  0
 10 32  1  0  0  0  0
 11 18  1  0  0  0  0
 11 33  1  0  0  0  0
 12 15  1  0  0  0  0
 12 22  2  0  0  0  0
 12 34  1  0  0  0  0
 13 15  1  0  0  0  0
 13 23  2  0  0  0  0
 13 35  1  0  0  0  0
 14 18  1  0  0  0  0
 14 24  1  0  0  0  0
 14 36  1  0  0  0  0
 14 37  1  0  0  0  0
 16 19  1  0  0  0  0
 17 19  1  0  0  0  0
 18 19  2  0  0  0  0
 20 22  1  0  0  0  0
 20 24  1  0  0  0  0
 21 24  1  0  0  0  0
 21 25  1  0  0  0  0
 22 23  1  0  0  0  0
 23 25  1  0  0  0  0
M  CHG  3   2   1  24   1  25   1
M  END
$$$$
