3LI
 OpenBabel04091915183D

 77 81  0  0  1  0  0  0  0  0999 V2000
   27.2565  -12.8145    9.5407 C   0  0  0  0  0  0  0  0  0  0  0  0
   25.8520  -12.5403    9.5976 N   0  0  0  0  0  0  0  0  0  0  0  0
   25.1872  -12.1266    8.4726 C   0  0  0  0  0  0  0  0  0  0  0  0
   25.6863  -11.9584    7.3675 O   0  0  0  0  0  0  0  0  0  0  0  0
   23.7654  -11.8818    8.6994 C   0  0  0  0  0  0  0  0  0  0  0  0
   22.8739  -12.9408    8.5266 C   0  0  0  0  0  0  0  0  0  0  0  0
   21.5177  -12.7210    8.7235 C   0  0  0  0  0  0  0  0  0  0  0  0
   21.0665  -11.4543    9.0879 C   0  0  0  0  0  0  0  0  0  0  0  0
   21.9647  -10.3952    9.2604 C   0  0  0  0  0  0  0  0  0  0  0  0
   21.4520   -9.0419    9.6518 C   0  0  0  0  0  0  0  0  0  0  0  0
   23.3379  -10.6042    9.0691 C   0  0  0  0  0  0  0  0  0  0  0  0
   24.2297   -9.5427    9.2298 N   0  0  0  0  0  0  0  0  0  0  0  0
   24.3810   -8.5117    8.3115 C   0  0  0  0  0  0  0  0  0  0  0  0
   25.2879   -7.5970    8.5593 N   0  0  0  0  0  0  0  0  0  0  0  0
   25.3333   -6.5842    7.7124 C   0  0  0  0  0  0  0  0  0  0  0  0
   24.5466   -6.4854    6.6524 N   0  0  0  0  0  0  0  0  0  0  0  0
   23.6618   -7.4491    6.4711 C   0  0  0  0  0  0  0  0  0  0  0  0
   23.5642   -8.4733    7.2797 N   0  0  0  0  0  0  0  0  0  0  0  0
   22.8164   -7.3902    5.3920 N   0  0  0  0  0  0  0  0  0  0  0  0
   21.6148   -8.2228    5.4806 C   0  0  0  0  0  0  0  0  0  0  0  0
   21.0645   -8.4152    4.0776 C   0  0  0  0  0  0  0  0  0  0  0  0
   20.8486   -7.1144    3.4242 N   0  0  0  0  0  0  0  0  0  0  0  0
   22.0632   -6.2811    3.3632 C   0  0  0  0  0  0  0  0  0  0  0  0
   22.6135   -6.0758    4.7811 C   0  0  0  0  0  0  0  0  0  0  0  0
   20.2833   -7.2614    2.1466 C   0  0  0  0  0  0  0  0  0  0  0  0
   20.6128   -8.3775    1.3469 C   0  0  0  0  0  0  0  0  0  0  0  0
   20.0391   -8.5461    0.1064 C   0  0  0  0  0  0  0  0  0  0  0  0
   19.1451   -7.5902   -0.3819 C   0  0  0  0  0  0  0  0  0  0  0  0
   18.8337   -6.4702    0.3976 C   0  0  0  0  0  0  0  0  0  0  0  0
   19.3945   -6.2958    1.6438 C   0  0  0  0  0  0  0  0  0  0  0  0
   18.9620   -4.9012    2.5807 Cl  0  0  0  0  0  0  0  0  0  0  0  0
   26.2179   -5.5330    7.9641 N   0  0  0  0  0  0  0  0  0  0  0  0
   26.6123   -5.4505    9.3589 C   0  0  0  0  0  0  0  0  0  0  0  0
   26.4075   -3.7373    9.8968 S   0  0  0  0  0  0  0  0  0  0  0  0
   26.3260   -3.1052    8.2169 C   0  0  0  0  0  0  0  0  0  0  0  0
   25.7467   -4.2526    7.4021 C   0  0  1  0  0  0  0  0  0  0  0  0
   26.2372   -4.0735    5.9741 C   0  0  0  0  0  0  0  0  0  0  0  0
   25.6512   -3.3419    5.1753 O   0  0  0  0  0  0  0  0  0  0  0  0
   27.4491   -4.6527    5.6883 N   0  0  0  0  0  0  0  0  0  0  0  0
   28.0633   -4.4403    4.4001 C   0  0  0  0  0  0  0  0  0  0  0  0
   29.3799   -3.7459    4.6206 C   0  0  0  0  0  0  0  0  0  0  0  0
   30.4236   -4.3964    4.7380 O   0  0  0  0  0  0  0  0  0  0  0  0
   29.2835   -2.3806    4.7982 N   0  0  0  0  0  0  0  0  0  0  0  0
   30.5223   -1.7842    5.1383 O   0  0  0  0  0  0  0  0  0  0  0  0
   27.5904  -13.1405   10.5265 H   0  0  0  0  0  0  0  0  0  0  0  0
   27.7822  -11.9038    9.2413 H   0  0  0  0  0  0  0  0  0  0  0  0
   27.4322  -13.5977    8.7989 H   0  0  0  0  0  0  0  0  0  0  0  0
   25.3402  -12.6626   10.4641 H   0  0  0  0  0  0  0  0  0  0  0  0
   23.2414  -13.9181    8.2309 H   0  0  0  0  0  0  0  0  0  0  0  0
   20.8069  -13.5295    8.5887 H   0  0  0  0  0  0  0  0  0  0  0  0
   20.0036  -11.2853    9.2380 H   0  0  0  0  0  0  0  0  0  0  0  0
   20.3676   -9.0542    9.7663 H   0  0  0  0  0  0  0  0  0  0  0  0
   21.6825   -8.3005    8.8835 H   0  0  0  0  0  0  0  0  0  0  0  0
   21.9059   -8.7368   10.5996 H   0  0  0  0  0  0  0  0  0  0  0  0
   24.9255   -9.5727    9.9520 H   0  0  0  0  0  0  0  0  0  0  0  0
   20.8577   -7.7402    6.1077 H   0  0  0  0  0  0  0  0  0  0  0  0
   21.8226   -9.2249    5.8765 H   0  0  0  0  0  0  0  0  0  0  0  0
   20.1222   -8.9748    4.1137 H   0  0  0  0  0  0  0  0  0  0  0  0
   21.8137   -9.0064    3.5365 H   0  0  0  0  0  0  0  0  0  0  0  0
   21.8601   -5.2950    2.9200 H   0  0  0  0  0  0  0  0  0  0  0  0
   22.8314   -6.7702    2.7458 H   0  0  0  0  0  0  0  0  0  0  0  0
   23.5450   -5.5026    4.7099 H   0  0  0  0  0  0  0  0  0  0  0  0
   21.8943   -5.4999    5.3773 H   0  0  0  0  0  0  0  0  0  0  0  0
   21.3028   -9.1388    1.6829 H   0  0  0  0  0  0  0  0  0  0  0  0
   20.2932   -9.4288   -0.4797 H   0  0  0  0  0  0  0  0  0  0  0  0
   18.6975   -7.7279   -1.3424 H   0  0  0  0  0  0  0  0  0  0  0  0
   18.1273   -5.7265    0.0080 H   0  0  0  0  0  0  0  0  0  0  0  0
   27.6622   -5.7422    9.4567 H   0  0  0  0  0  0  0  0  0  0  0  0
   26.0108   -6.0656   10.0301 H   0  0  0  0  0  0  0  0  0  0  0  0
   27.3311   -2.8169    7.8915 H   0  0  0  0  0  0  0  0  0  0  0  0
   25.6850   -2.2195    8.1617 H   0  0  0  0  0  0  0  0  0  0  0  0
   24.6515   -4.1824    7.4024 H   0  0  0  0  0  0  0  0  0  0  0  0
   27.9009   -5.2433    6.3885 H   0  0  0  0  0  0  0  0  0  0  0  0
   27.4233   -3.8259    3.7621 H   0  0  0  0  0  0  0  0  0  0  0  0
   28.2279   -5.4060    3.9179 H   0  0  0  0  0  0  0  0  0  0  0  0
   28.4566   -1.8327    4.6873 H   0  0  0  0  0  0  0  0  0  0  0  0
   30.3374   -0.8341    5.2258 H   0  0  0  0  0  0  0  0  0  0  0  0
  1  2  1  0  0  0  0
  1 45  1  0  0  0  0
  1 46  1  0  0  0  0
  1 47  1  0  0  0  0
  2  3  1  0  0  0  0
  2 48  1  0  0  0  0
  3  4  2  0  0  0  0
  3  5  1  0  0  0  0
  5  6  2  0  0  0  0
  5 11  1  0  0  0  0
  6  7  1  0  0  0  0
  6 49  1  0  0  0  0
  7  8  2  0  0  0  0
  7 50  1  0  0  0  0
  8  9  1  0  0  0  0
  8 51  1  0  0  0  0
  9 10  1  0  0  0  0
  9 11  2  0  0  0  0
 10 52  1  0  0  0  0
 10 53  1  0  0  0  0
 10 54  1  0  0  0  0
 11 12  1  0  0  0  0
 12 13  1  0  0  0  0
 12 55  1  0  0  0  0
 13 14  2  0  0  0  0
 13 18  1  0  0  0  0
 14 15  1  0  0  0  0
 15 16  2  0  0  0  0
 15 32  1  0  0  0  0
 16 17  1  0  0  0  0
 17 18  2  0  0  0  0
 17 19  1  0  0  0  0
 19 20  1  0  0  0  0
 19 24  1  0  0  0  0
 20 21  1  0  0  0  0
 20 56  1  0  0  0  0
 20 57  1  0  0  0  0
 21 22  1  0  0  0  0
 21 58  1  0  0  0  0
 21 59  1  0  0  0  0
 22 23  1  0  0  0  0
 22 25  1  0  0  0  0
 23 24  1  0  0  0  0
 23 60  1  0  0  0  0
 23 61  1  0  0  0  0
 24 62  1  0  0  0  0
 24 63  1  0  0  0  0
 25 26  2  0  0  0  0
 25 30  1  0  0  0  0
 26 27  1  0  0  0  0
 26 64  1  0  0  0  0
 27 28  2  0  0  0  0
 27 65  1  0  0  0  0
 28 29  1  0  0  0  0
 28 66  1  0  0  0  0
 29 30  2  0  0  0  0
 29 67  1  0  0  0  0
 30 31  1  0  0  0  0
 32 33  1  0  0  0  0
 32 36  1  0  0  0  0
 33 34  1  0  0  0  0
 33 68  1  0  0  0  0
 33 69  1  0  0  0  0
 34 35  1  0  0  0  0
 35 36  1  0  0  0  0
 35 70  1  0  0  0  0
 35 71  1  0  0  0  0
 36 37  1  0  0  0  0
 36 72  1  1  0  0  0
 37 38  2  0  0  0  0
 37 39  1  0  0  0  0
 39 40  1  0  0  0  0
 39 73  1  0  0  0  0
 40 41  1  0  0  0  0
 40 74  1  0  0  0  0
 40 75  1  0  0  0  0
 41 42  2  0  0  0  0
 41 43  1  0  0  0  0
 43 44  1  0  0  0  0
 43 76  1  0  0  0  0
 44 77  1  0  0  0  0
M  END
$$$$
