3M1
 OpenBabel04091914243D

 27 28  0  0  0  0  0  0  0  0999 V2000
   -1.0967    1.3693   -8.2648 O   0  0  0  0  0  0  0  0  0  0  0  0
   -2.0364    1.7728   -2.4365 O   0  0  0  0  0  0  0  0  0  0  0  0
    1.7509   -1.6174   -3.9044 O   0  0  0  0  0  0  0  0  0  0  0  0
    0.1641   -0.1393   -2.3424 O   0  0  0  0  0  0  0  0  0  0  0  0
   -2.7423    2.2870   -4.4021 O   0  0  0  0  0  0  0  0  0  0  0  0
    0.3228    1.0502  -10.4500 F   0  0  0  0  0  0  0  0  0  0  0  0
    0.4650   -2.5559  -10.7079 C   0  0  0  0  0  0  0  0  0  0  0  0
   -0.0452   -2.9514   -9.4644 C   0  0  0  0  0  0  0  0  0  0  0  0
    0.5702   -1.2063  -11.0479 C   0  0  0  0  0  0  0  0  0  0  0  0
   -0.3992   -1.9930   -8.5383 C   0  0  0  0  0  0  0  0  0  0  0  0
    0.7902   -0.7056   -5.8858 C   0  0  0  0  0  0  0  0  0  0  0  0
   -0.9729    0.9011   -5.6604 C   0  0  0  0  0  0  0  0  0  0  0  0
   -0.4833    0.3712   -7.8865 C   0  0  0  0  0  0  0  0  0  0  0  0
    0.8383   -0.7615   -4.4883 C   0  0  0  0  0  0  0  0  0  0  0  0
    0.2072   -0.2457  -10.1247 C   0  0  0  0  0  0  0  0  0  0  0  0
    0.0130   -0.0069   -3.6080 C   0  0  0  0  0  0  0  0  0  0  0  0
   -0.1421    0.1634   -6.4736 C   0  0  0  0  0  0  0  0  0  0  0  0
   -0.2195   -0.6484   -8.8681 C   0  0  0  0  0  0  0  0  0  0  0  0
   -0.9212    0.8233   -4.2722 C   0  0  0  0  0  0  0  0  0  0  0  0
   -1.9595    1.6783   -3.6416 N   0  0  0  0  0  0  0  0  0  0  0  0
    1.5653   -1.4280   -2.9467 H   0  0  0  0  0  0  0  0  0  0  0  0
    0.7825   -3.3134  -11.4154 H   0  0  0  0  0  0  0  0  0  0  0  0
   -0.1517   -4.0003   -9.2100 H   0  0  0  0  0  0  0  0  0  0  0  0
    0.9479   -0.8850  -12.0106 H   0  0  0  0  0  0  0  0  0  0  0  0
   -0.7871   -2.2865   -7.5637 H   0  0  0  0  0  0  0  0  0  0  0  0
    1.4490   -1.3431   -6.4599 H   0  0  0  0  0  0  0  0  0  0  0  0
   -1.7095    1.5255   -6.1592 H   0  0  0  0  0  0  0  0  0  0  0  0
  1 13  2  0  0  0  0
  2 20  2  0  0  0  0
  3 14  1  0  0  0  0
  3 21  1  0  0  0  0
  4 16  1  0  0  0  0
  5 20  2  0  0  0  0
  6 15  1  0  0  0  0
  7  8  2  0  0  0  0
  7  9  1  0  0  0  0
  7 22  1  0  0  0  0
  8 10  1  0  0  0  0
  8 23  1  0  0  0  0
  9 15  2  0  0  0  0
  9 24  1  0  0  0  0
 10 18  2  0  0  0  0
 10 25  1  0  0  0  0
 11 14  2  0  0  0  0
 11 17  1  0  0  0  0
 11 26  1  0  0  0  0
 12 17  2  0  0  0  0
 12 19  1  0  0  0  0
 12 27  1  0  0  0  0
 13 17  1  0  0  0  0
 13 18  1  0  0  0  0
 14 16  1  0  0  0  0
 15 18  1  0  0  0  0
 16 19  2  0  0  0  0
 19 20  1  0  0  0  0
M  END
$$$$
