3NG
 OpenBabel04091914383D

 36 39  0  0  0  0  0  0  0  0999 V2000
   22.8318  -31.0604   13.9070 C   0  0  0  0  0  0  0  0  0  0  0  0
   22.9874  -30.9279   12.5177 C   0  0  0  0  0  0  0  0  0  0  0  0
   23.0260  -32.0967   11.7213 C   0  0  0  0  0  0  0  0  0  0  0  0
   22.8913  -33.3616   12.2863 C   0  0  0  0  0  0  0  0  0  0  0  0
   22.7205  -33.5060   13.6601 C   0  0  0  0  0  0  0  0  0  0  0  0
   22.7115  -32.3397   14.4539 C   0  0  0  0  0  0  0  0  0  0  0  0
   23.0443  -28.4925   12.8487 C   0  0  0  0  0  0  0  0  0  0  0  0
   23.0930  -29.6055   11.9862 C   0  0  0  0  0  0  0  0  0  0  0  0
   22.7792  -29.9917   14.7274 N   0  0  0  0  0  0  0  0  0  0  0  0
   22.8771  -28.7406   14.2334 C   0  0  0  0  0  0  0  0  0  0  0  0
   23.2932  -27.0544   10.9079 C   0  0  0  0  0  0  0  0  0  0  0  0
   23.3357  -28.0872   10.0603 N   0  0  0  0  0  0  0  0  0  0  0  0
   23.2374  -29.3185   10.6150 C   0  0  0  0  0  0  0  0  0  0  0  0
   23.1535  -27.2011   12.2764 C   0  0  0  0  0  0  0  0  0  0  0  0
   22.8160  -27.6392   15.1239 N   0  0  0  0  0  0  0  0  0  0  0  0
   22.6783  -27.5736   16.5199 C   0  0  0  0  0  0  0  0  0  0  0  0
   23.0741  -28.6015   17.3743 C   0  0  0  0  0  0  0  0  0  0  0  0
   22.9032  -28.4814   18.7508 C   0  0  0  0  0  0  0  0  0  0  0  0
   22.3170  -27.3409   19.2977 C   0  0  0  0  0  0  0  0  0  0  0  0
   21.8985  -26.3112   18.4622 C   0  0  0  0  0  0  0  0  0  0  0  0
   22.0786  -26.4301   17.0801 C   0  0  0  0  0  0  0  0  0  0  0  0
   23.4307  -29.7449   19.7933 Cl  0  0  0  0  0  0  0  0  0  0  0  0
   22.5272  -34.8731   14.2638 C   0  0  0  0  0  0  0  0  0  0  0  0
   22.6991  -34.9911   15.5146 O   0  0  0  0  0  0  0  0  0  0  0  0
   22.2061  -35.8124   13.4612 O   0  0  0  0  0  0  0  0  0  0  0  0
   23.1463  -32.0566   10.6475 H   0  0  0  0  0  0  0  0  0  0  0  0
   22.9126  -34.2474   11.6543 H   0  0  0  0  0  0  0  0  0  0  0  0
   22.5871  -32.4504   15.5296 H   0  0  0  0  0  0  0  0  0  0  0  0
   23.3743  -26.0708   10.4582 H   0  0  0  0  0  0  0  0  0  0  0  0
   23.2768  -30.1111    9.8718 H   0  0  0  0  0  0  0  0  0  0  0  0
   23.1340  -26.2961   12.8675 H   0  0  0  0  0  0  0  0  0  0  0  0
   22.6822  -26.7495   14.6792 H   0  0  0  0  0  0  0  0  0  0  0  0
   23.5393  -29.4989   16.9719 H   0  0  0  0  0  0  0  0  0  0  0  0
   22.1810  -27.2581   20.3724 H   0  0  0  0  0  0  0  0  0  0  0  0
   21.4281  -25.4281   18.8756 H   0  0  0  0  0  0  0  0  0  0  0  0
   21.7267  -25.6240   16.4418 H   0  0  0  0  0  0  0  0  0  0  0  0
  1  2  2  0  0  0  0
  1  6  1  0  0  0  0
  1  9  1  0  0  0  0
  2  3  1  0  0  0  0
  2  8  1  0  0  0  0
  3  4  2  0  0  0  0
  3 26  1  0  0  0  0
  4  5  1  0  0  0  0
  4 27  1  0  0  0  0
  5  6  2  0  0  0  0
  5 23  1  0  0  0  0
  6 28  1  0  0  0  0
  7  8  2  0  0  0  0
  7 10  1  0  0  0  0
  7 14  1  0  0  0  0
  8 13  1  0  0  0  0
  9 10  2  0  0  0  0
 10 15  1  0  0  0  0
 11 12  1  0  0  0  0
 11 14  2  0  0  0  0
 11 29  1  0  0  0  0
 12 13  2  0  0  0  0
 13 30  1  0  0  0  0
 14 31  1  0  0  0  0
 15 16  1  0  0  0  0
 15 32  1  0  0  0  0
 16 17  2  0  0  0  0
 16 21  1  0  0  0  0
 17 18  1  0  0  0  0
 17 33  1  0  0  0  0
 18 19  2  0  0  0  0
 18 22  1  0  0  0  0
 19 20  1  0  0  0  0
 19 34  1  0  0  0  0
 20 21  2  0  0  0  0
 20 35  1  0  0  0  0
 21 36  1  0  0  0  0
 23 24  2  0  0  0  0
 23 25  1  0  0  0  0
M  END
$$$$
