3NY
 OpenBabel04091914103D

 16 17  0  0  0  0  0  0  0  0999 V2000
   22.1232   -1.3451  -24.1454 N   0  0  0  0  0  0  0  0  0  0  0  0
   20.8705   -1.7680  -24.0232 N   0  0  0  0  0  0  0  0  0  0  0  0
   20.7394   -2.2945  -22.7959 N   0  3  0  0  0  0  0  0  0  0  0  0
   22.2689   -2.6530  -20.8085 C   0  0  0  0  0  0  0  0  0  0  0  0
   23.5986   -2.3926  -20.4289 C   0  0  0  0  0  0  0  0  0  0  0  0
   24.5070   -1.7589  -21.2946 C   0  0  0  0  0  0  0  0  0  0  0  0
   24.1038   -1.3649  -22.5813 C   0  0  0  0  0  0  0  0  0  0  0  0
   25.1739   -2.4585  -18.7236 O   0  0  0  0  0  0  0  0  0  0  0  0
   23.2353   -3.4287  -18.3841 O   0  0  0  0  0  0  0  0  0  0  0  0
   21.9094   -2.2386  -22.0922 C   0  0  0  0  0  0  0  0  0  0  0  0
   22.7805   -1.6152  -22.9762 C   0  0  0  0  0  0  0  0  0  0  0  0
   24.0345   -2.7900  -19.0822 N   0  0  0  0  0  0  0  0  0  0  0  0
   19.8375   -2.6565  -22.5104 H   0  0  0  0  0  0  0  0  0  0  0  0
   21.5565   -3.1397  -20.1500 H   0  0  0  0  0  0  0  0  0  0  0  0
   25.5333   -1.5633  -20.9874 H   0  0  0  0  0  0  0  0  0  0  0  0
   24.7939   -0.8716  -23.2588 H   0  0  0  0  0  0  0  0  0  0  0  0
  1  2  1  0  0  0  0
  1 11  1  0  0  0  0
  2  3  2  0  0  0  0
  3 10  1  0  0  0  0
  3 13  1  0  0  0  0
  4  5  2  0  0  0  0
  4 10  1  0  0  0  0
  4 14  1  0  0  0  0
  5  6  1  0  0  0  0
  5 12  1  0  0  0  0
  6  7  2  0  0  0  0
  6 15  1  0  0  0  0
  7 11  1  0  0  0  0
  7 16  1  0  0  0  0
  8 12  2  0  0  0  0
  9 12  2  0  0  0  0
 10 11  2  0  0  0  0
M  CHG  1   3   1
M  END
$$$$
