3P1
 OpenBabel04091913343D

 52 56  0  0  1  0  0  0  0  0999 V2000
   18.0842   -5.6133   -2.7599 N   0  0  0  0  0  0  0  0  0  0  0  0
   16.8323   -5.6664   -2.2506 C   0  0  0  0  0  0  0  0  0  0  0  0
   16.3345   -5.0198   -1.1755 N   0  0  0  0  0  0  0  0  0  0  0  0
   18.9892   -4.8310   -2.1370 C   0  0  0  0  0  0  0  0  0  0  0  0
   17.1521   -3.4701    0.5273 N   0  3  0  0  0  0  0  0  0  0  0  0
   18.3977   -2.9092    0.7708 C   0  0  0  0  0  0  0  0  0  0  0  0
   19.2749   -3.2929   -0.1385 N   0  0  0  0  0  0  0  0  0  0  0  0
   18.5947   -4.1189   -0.9925 C   0  0  0  0  0  0  0  0  0  0  0  0
   17.2852   -4.2539   -0.5921 C   0  0  0  0  0  0  0  0  0  0  0  0
   15.9485   -3.4224    1.3376 C   0  0  2  0  0  0  0  0  0  0  0  0
   15.5642   -2.0548    1.5756 O   0  0  0  0  0  0  0  0  0  0  0  0
   14.8612   -2.0083    2.8423 C   0  0  1  0  0  0  0  0  0  0  0  0
   14.9872   -3.3865    3.4983 C   0  0  2  0  0  0  0  0  0  0  0  0
   16.0966   -4.0693    2.7147 C   0  0  1  0  0  0  0  0  0  0  0  0
   20.2655   -4.7469   -2.6599 N   0  0  0  0  0  0  0  0  0  0  0  0
   18.6503   -2.1155    1.8337 N   0  0  0  0  0  0  0  0  0  0  0  0
   20.0275   -1.6378    2.0508 C   0  0  0  0  0  0  0  0  0  0  0  0
   20.8193   -2.5542    2.9805 C   0  0  0  0  0  0  0  0  0  0  0  0
   22.1619   -2.6598    2.7966 N   0  0  0  0  0  0  0  0  0  0  0  0
   20.9082   -4.0389    4.8590 C   0  0  0  0  0  0  0  0  0  0  0  0
   20.1734   -3.2141    4.0234 C   0  0  0  0  0  0  0  0  0  0  0  0
   22.2756   -4.1880    4.6615 C   0  0  0  0  0  0  0  0  0  0  0  0
   22.8750   -3.4650    3.6096 C   0  0  0  0  0  0  0  0  0  0  0  0
   24.2463   -3.6159    3.4232 C   0  0  0  0  0  0  0  0  0  0  0  0
   25.0163   -4.4475    4.2435 C   0  0  0  0  0  0  0  0  0  0  0  0
   24.4133   -5.1567    5.2828 C   0  0  0  0  0  0  0  0  0  0  0  0
   23.0470   -5.0257    5.4912 C   0  0  0  0  0  0  0  0  0  0  0  0
   15.4767   -0.8992    3.6951 C   0  0  0  0  0  0  0  0  0  0  0  0
   16.8783   -1.1223    3.8836 O   0  0  0  0  0  0  0  0  0  0  0  0
   13.7535   -4.1001    3.3712 O   0  0  0  0  0  0  0  0  0  0  0  0
   15.9321   -5.4845    2.7310 O   0  0  0  0  0  0  0  0  0  0  0  0
   16.1382   -6.3148   -2.7769 H   0  0  0  0  0  0  0  0  0  0  0  0
   15.1383   -3.8951    0.7720 H   0  0  0  0  0  0  0  0  0  0  0  0
   13.8134   -1.7653    2.6321 H   0  0  0  0  0  0  0  0  0  0  0  0
   15.2042   -3.3435    4.5701 H   0  0  0  0  0  0  0  0  0  0  0  0
   17.0659   -3.8260    3.1605 H   0  0  0  0  0  0  0  0  0  0  0  0
   20.9678   -4.2664   -2.1138 H   0  0  0  0  0  0  0  0  0  0  0  0
   20.5077   -5.3786   -3.4043 H   0  0  0  0  0  0  0  0  0  0  0  0
   17.9249   -1.5868    2.3143 H   0  0  0  0  0  0  0  0  0  0  0  0
   19.9755   -0.6495    2.5210 H   0  0  0  0  0  0  0  0  0  0  0  0
   20.5695   -1.5075    1.1072 H   0  0  0  0  0  0  0  0  0  0  0  0
   20.4080   -4.5820    5.6583 H   0  0  0  0  0  0  0  0  0  0  0  0
   19.1097   -3.0980    4.1733 H   0  0  0  0  0  0  0  0  0  0  0  0
   24.7311   -3.0710    2.6193 H   0  0  0  0  0  0  0  0  0  0  0  0
   26.0864   -4.5445    4.0762 H   0  0  0  0  0  0  0  0  0  0  0  0
   25.0043   -5.8059    5.9213 H   0  0  0  0  0  0  0  0  0  0  0  0
   22.5773   -5.5833    6.3009 H   0  0  0  0  0  0  0  0  0  0  0  0
   14.9924   -0.8356    4.6755 H   0  0  0  0  0  0  0  0  0  0  0  0
   15.3648    0.0670    3.1939 H   0  0  0  0  0  0  0  0  0  0  0  0
   16.9829   -1.8019    4.5696 H   0  0  0  0  0  0  0  0  0  0  0  0
   13.9596   -5.0514    3.4612 H   0  0  0  0  0  0  0  0  0  0  0  0
   16.1734   -5.8085    3.6164 H   0  0  0  0  0  0  0  0  0  0  0  0
  1  2  2  0  0  0  0
  1  4  1  0  0  0  0
  2  3  1  0  0  0  0
  2 32  1  0  0  0  0
  3  9  2  0  0  0  0
  4  8  2  0  0  0  0
  4 15  1  0  0  0  0
  5  6  2  0  0  0  0
  5  9  1  0  0  0  0
  5 10  1  0  0  0  0
  6  7  1  0  0  0  0
  6 16  1  0  0  0  0
  7  8  1  0  0  0  0
  8  9  1  0  0  0  0
 10 11  1  0  0  0  0
 10 14  1  0  0  0  0
 10 33  1  6  0  0  0
 11 12  1  0  0  0  0
 12 13  1  0  0  0  0
 12 28  1  0  0  0  0
 12 34  1  6  0  0  0
 13 14  1  0  0  0  0
 13 30  1  0  0  0  0
 13 35  1  1  0  0  0
 14 31  1  0  0  0  0
 14 36  1  1  0  0  0
 15 37  1  0  0  0  0
 15 38  1  0  0  0  0
 16 17  1  0  0  0  0
 16 39  1  0  0  0  0
 17 18  1  0  0  0  0
 17 40  1  0  0  0  0
 17 41  1  0  0  0  0
 18 19  2  0  0  0  0
 18 21  1  0  0  0  0
 19 23  1  0  0  0  0
 20 21  2  0  0  0  0
 20 22  1  0  0  0  0
 20 42  1  0  0  0  0
 21 43  1  0  0  0  0
 22 23  2  0  0  0  0
 22 27  1  0  0  0  0
 23 24  1  0  0  0  0
 24 25  2  0  0  0  0
 24 44  1  0  0  0  0
 25 26  1  0  0  0  0
 25 45  1  0  0  0  0
 26 27  2  0  0  0  0
 26 46  1  0  0  0  0
 27 47  1  0  0  0  0
 28 29  1  0  0  0  0
 28 48  1  0  0  0  0
 28 49  1  0  0  0  0
 29 50  1  0  0  0  0
 30 51  1  0  0  0  0
 31 52  1  0  0  0  0
M  CHG  1   5   1
M  END
$$$$
