3RQ
 OpenBabel04091915013D

 32 34  0  0  0  0  0  0  0  0999 V2000
   17.5606   -2.2395   49.8608 N   0  0  0  0  0  0  0  0  0  0  0  0
   17.5211    0.0663   49.1428 N   0  3  0  0  0  0  0  0  0  0  0  0
   12.5926   -1.2187   51.1360 C   0  0  0  0  0  0  0  0  0  0  0  0
   11.3789   -1.1289   51.8346 C   0  0  0  0  0  0  0  0  0  0  0  0
   11.3536   -1.3115   53.2241 C   0  0  0  0  0  0  0  0  0  0  0  0
   13.5311   -2.0128   56.1275 C   0  0  0  0  0  0  0  0  0  0  0  0
   15.1033   -1.6498   51.1163 C   0  0  0  0  0  0  0  0  0  0  0  0
   17.4039   -4.5286   50.7002 C   0  0  0  0  0  0  0  0  0  0  0  0
   15.6116    0.7506   50.0703 C   0  0  0  0  0  0  0  0  0  0  0  0
   14.5535    1.6332   50.4369 C   0  0  0  0  0  0  0  0  0  0  0  0
   13.7458   -1.6831   53.2361 C   0  0  0  0  0  0  0  0  0  0  0  0
   16.6872    1.1492   49.2985 C   0  0  0  0  0  0  0  0  0  0  0  0
   15.7851   -0.6374   50.4007 C   0  0  0  0  0  0  0  0  0  0  0  0
   13.8073   -1.4925   51.8153 C   0  0  0  0  0  0  0  0  0  0  0  0
   12.5327   -1.5872   53.9537 C   0  0  0  0  0  0  0  0  0  0  0  0
   16.9890   -1.0204   49.8090 C   0  0  0  0  0  0  0  0  0  0  0  0
   16.8483   -3.1342   50.5710 C   0  0  0  0  0  0  0  0  0  0  0  0
   13.6819    2.3525   50.7558 N   0  0  0  0  0  0  0  0  0  0  0  0
   15.6738   -2.8888   51.1931 N   0  0  0  0  0  0  0  0  0  0  0  0
   12.3903   -1.7377   55.3150 O   0  0  0  0  0  0  0  0  0  0  0  0
   12.5076   -0.9801   49.4149 Cl  0  0  0  0  0  0  0  0  0  0  0  0
    9.8052   -1.1854   54.0034 Cl  0  0  0  0  0  0  0  0  0  0  0  0
   18.3947    0.0450   48.6251 H   0  0  0  0  0  0  0  0  0  0  0  0
   10.4528   -0.9127   51.2975 H   0  0  0  0  0  0  0  0  0  0  0  0
   13.2189   -2.0986   57.1835 H   0  0  0  0  0  0  0  0  0  0  0  0
   14.2586   -1.1990   56.0584 H   0  0  0  0  0  0  0  0  0  0  0  0
   13.9914   -2.9612   55.8362 H   0  0  0  0  0  0  0  0  0  0  0  0
   18.3572   -4.6135   50.1648 H   0  0  0  0  0  0  0  0  0  0  0  0
   16.7012   -5.2592   50.2800 H   0  0  0  0  0  0  0  0  0  0  0  0
   17.5744   -4.7742   51.7564 H   0  0  0  0  0  0  0  0  0  0  0  0
   14.6784   -1.9019   53.7611 H   0  0  0  0  0  0  0  0  0  0  0  0
   16.8945    2.1245   48.8643 H   0  0  0  0  0  0  0  0  0  0  0  0
  1 16  1  0  0  0  0
  1 17  1  0  0  0  0
  2 12  1  0  0  0  0
  2 16  2  0  0  0  0
  2 23  1  0  0  0  0
  3  4  2  0  0  0  0
  3 14  1  0  0  0  0
  3 21  1  0  0  0  0
  4  5  1  0  0  0  0
  4 24  1  0  0  0  0
  5 15  2  0  0  0  0
  5 22  1  0  0  0  0
  6 20  1  0  0  0  0
  6 25  1  0  0  0  0
  6 26  1  0  0  0  0
  6 27  1  0  0  0  0
  7 13  2  0  0  0  0
  7 14  1  0  0  0  0
  7 19  1  0  0  0  0
  8 17  1  0  0  0  0
  8 28  1  0  0  0  0
  8 29  1  0  0  0  0
  8 30  1  0  0  0  0
  9 10  1  0  0  0  0
  9 12  2  0  0  0  0
  9 13  1  0  0  0  0
 10 18  3  0  0  0  0
 11 14  2  0  0  0  0
 11 15  1  0  0  0  0
 11 31  1  0  0  0  0
 12 32  1  0  0  0  0
 13 16  1  0  0  0  0
 15 20  1  0  0  0  0
 17 19  2  0  0  0  0
M  CHG  1   2   1
M  END
$$$$
