3RU
 OpenBabel04091915053D

 48 50  0  0  0  0  0  0  0  0999 V2000
   68.3246   49.1473   11.2857 C   0  0  0  0  0  0  0  0  0  0  0  0
   67.6755   48.9796   10.0509 C   0  0  0  0  0  0  0  0  0  0  0  0
   67.8906   49.8803    8.9889 C   0  0  0  0  0  0  0  0  0  0  0  0
   66.4261   48.7225    7.6123 C   0  0  0  0  0  0  0  0  0  0  0  0
   66.7922   47.9245    9.8393 C   0  0  0  0  0  0  0  0  0  0  0  0
   63.7189   47.1811    8.3858 C   0  0  0  0  0  0  0  0  0  0  0  0
   62.3790   49.1150   11.3613 C   0  0  0  0  0  0  0  0  0  0  0  0
   65.1949   51.0270   13.2218 C   0  0  0  0  0  0  0  0  0  0  0  0
   65.4084   52.1699   12.2324 C   0  0  0  0  0  0  0  0  0  0  0  0
   64.0977   52.6081   11.5802 C   0  0  0  0  0  0  0  0  0  0  0  0
   64.4750   49.8523   12.5655 C   0  0  0  0  0  0  0  0  0  0  0  0
   63.3664   51.4304   10.9512 C   0  0  0  0  0  0  0  0  0  0  0  0
   63.1362   50.3002   11.9658 C   0  0  0  0  0  0  0  0  0  0  0  0
   62.9006   48.7123   10.0715 N   0  0  0  0  0  0  0  0  0  0  0  0
   63.2197   47.4128    9.7803 C   0  0  0  0  0  0  0  0  0  0  0  0
   63.1252   46.4883   10.5959 O   0  0  0  0  0  0  0  0  0  0  0  0
   65.1563   46.6673    8.4140 C   0  0  0  0  0  0  0  0  0  0  0  0
   66.1432   47.7883    8.6068 C   0  0  0  0  0  0  0  0  0  0  0  0
   69.1990   50.2114   11.4782 C   0  0  0  0  0  0  0  0  0  0  0  0
   69.4199   51.1117   10.4446 C   0  0  0  0  0  0  0  0  0  0  0  0
   68.7647   50.9411    9.2171 C   0  0  0  0  0  0  0  0  0  0  0  0
   67.2780   49.7458    7.7951 N   0  0  0  0  0  0  0  0  0  0  0  0
   65.6979   48.7465    6.4241 N   0  0  0  0  0  0  0  0  0  0  0  0
   68.1470   48.4467   12.0988 H   0  0  0  0  0  0  0  0  0  0  0  0
   66.5844   47.2179   10.6400 H   0  0  0  0  0  0  0  0  0  0  0  0
   63.6132   48.0909    7.7821 H   0  0  0  0  0  0  0  0  0  0  0  0
   63.0642   46.4283    7.9316 H   0  0  0  0  0  0  0  0  0  0  0  0
   61.3289   49.3788   11.2090 H   0  0  0  0  0  0  0  0  0  0  0  0
   62.4022   48.2663   12.0566 H   0  0  0  0  0  0  0  0  0  0  0  0
   64.6037   51.3858   14.0720 H   0  0  0  0  0  0  0  0  0  0  0  0
   66.1589   50.6936   13.6187 H   0  0  0  0  0  0  0  0  0  0  0  0
   66.1098   51.8486   11.4538 H   0  0  0  0  0  0  0  0  0  0  0  0
   65.8677   53.0214   12.7455 H   0  0  0  0  0  0  0  0  0  0  0  0
   64.3054   53.3585   10.8104 H   0  0  0  0  0  0  0  0  0  0  0  0
   63.4505   53.0810   12.3287 H   0  0  0  0  0  0  0  0  0  0  0  0
   64.3151   49.0616   13.3081 H   0  0  0  0  0  0  0  0  0  0  0  0
   65.1097   49.4288   11.7804 H   0  0  0  0  0  0  0  0  0  0  0  0
   63.9778   51.0708   10.1142 H   0  0  0  0  0  0  0  0  0  0  0  0
   62.4088   51.7621   10.5324 H   0  0  0  0  0  0  0  0  0  0  0  0
   62.5198   50.6912   12.7880 H   0  0  0  0  0  0  0  0  0  0  0  0
   62.9679   49.4037    9.3369 H   0  0  0  0  0  0  0  0  0  0  0  0
   65.3953   46.1456    7.4780 H   0  0  0  0  0  0  0  0  0  0  0  0
   65.2838   45.9161    9.2037 H   0  0  0  0  0  0  0  0  0  0  0  0
   69.7038   50.3342   12.4341 H   0  0  0  0  0  0  0  0  0  0  0  0
   70.1003   51.9481   10.5827 H   0  0  0  0  0  0  0  0  0  0  0  0
   68.9395   51.6547    8.4172 H   0  0  0  0  0  0  0  0  0  0  0  0
   66.0908   49.3848    5.7418 H   0  0  0  0  0  0  0  0  0  0  0  0
   65.3063   47.8887    6.0742 H   0  0  0  0  0  0  0  0  0  0  0  0
  1  2  2  0  0  0  0
  1 19  1  0  0  0  0
  1 24  1  0  0  0  0
  2  3  1  0  0  0  0
  2  5  1  0  0  0  0
  3 21  2  0  0  0  0
  3 22  1  0  0  0  0
  4 18  1  0  0  0  0
  4 22  2  0  0  0  0
  4 23  1  0  0  0  0
  5 18  2  0  0  0  0
  5 25  1  0  0  0  0
  6 15  1  0  0  0  0
  6 17  1  0  0  0  0
  6 26  1  0  0  0  0
  6 27  1  0  0  0  0
  7 13  1  0  0  0  0
  7 14  1  0  0  0  0
  7 28  1  0  0  0  0
  7 29  1  0  0  0  0
  8  9  1  0  0  0  0
  8 11  1  0  0  0  0
  8 30  1  0  0  0  0
  8 31  1  0  0  0  0
  9 10  1  0  0  0  0
  9 32  1  0  0  0  0
  9 33  1  0  0  0  0
 10 12  1  0  0  0  0
 10 34  1  0  0  0  0
 10 35  1  0  0  0  0
 11 13  1  0  0  0  0
 11 36  1  0  0  0  0
 11 37  1  0  0  0  0
 12 13  1  0  0  0  0
 12 38  1  0  0  0  0
 12 39  1  0  0  0  0
 13 40  1  0  0  0  0
 14 15  1  0  0  0  0
 14 41  1  0  0  0  0
 15 16  2  0  0  0  0
 17 18  1  0  0  0  0
 17 42  1  0  0  0  0
 17 43  1  0  0  0  0
 19 20  2  0  0  0  0
 19 44  1  0  0  0  0
 20 21  1  0  0  0  0
 20 45  1  0  0  0  0
 21 46  1  0  0  0  0
 23 47  1  0  0  0  0
 23 48  1  0  0  0  0
M  END
$$$$
