478
 OpenBabel04091914083D

 70 72  0  0  1  0  0  0  0  0999 V2000
  -11.9907  -24.6831  -19.3847 C   0  0  0  0  0  0  0  0  0  0  0  0
  -13.9368  -23.8237  -20.4433 C   0  0  0  0  0  0  0  0  0  0  0  0
  -14.1656  -22.1260  -17.9892 C   0  0  0  0  0  0  0  0  0  0  0  0
  -13.3311  -24.0461  -19.0698 C   0  0  2  0  0  0  0  0  0  0  0  0
  -14.8024  -19.9927  -16.9077 C   0  0  2  0  0  0  0  0  0  0  0  0
  -15.2408  -18.8809  -17.8920 C   0  0  1  0  0  0  0  0  0  0  0  0
  -14.1197  -19.4561  -15.6452 C   0  0  0  0  0  0  0  0  0  0  0  0
  -13.7620  -20.5450  -14.6689 C   0  0  0  0  0  0  0  0  0  0  0  0
  -12.4527  -21.0203  -14.6199 C   0  0  0  0  0  0  0  0  0  0  0  0
  -14.7366  -21.0967  -13.8256 C   0  0  0  0  0  0  0  0  0  0  0  0
  -12.1534  -22.0806  -13.7822 C   0  0  0  0  0  0  0  0  0  0  0  0
  -14.4364  -22.1310  -12.9570 C   0  0  0  0  0  0  0  0  0  0  0  0
  -13.1498  -22.6511  -12.9859 C   0  0  0  0  0  0  0  0  0  0  0  0
  -16.3387  -17.9892  -17.3178 C   0  0  0  0  0  0  0  0  0  0  0  0
  -18.5400  -18.2762  -18.3850 C   0  0  0  0  0  0  0  0  0  0  0  0
  -18.2544  -18.8999  -19.7549 C   0  0  0  0  0  0  0  0  0  0  0  0
  -19.1486  -17.5362  -15.2337 C   0  0  0  0  0  0  0  0  0  0  0  0
  -18.4933  -16.6429  -14.4018 C   0  0  0  0  0  0  0  0  0  0  0  0
  -19.1285  -15.4501  -14.0657 C   0  0  0  0  0  0  0  0  0  0  0  0
  -20.4459  -15.1799  -14.4414 C   0  0  0  0  0  0  0  0  0  0  0  0
  -21.1385  -16.1414  -15.1474 C   0  0  0  0  0  0  0  0  0  0  0  0
  -20.4828  -17.3039  -15.5762 C   0  0  0  0  0  0  0  0  0  0  0  0
  -18.3602  -20.4196  -19.7520 C   0  0  0  0  0  0  0  0  0  0  0  0
  -19.3129  -18.3659  -20.7245 C   0  0  0  0  0  0  0  0  0  0  0  0
  -12.8979  -24.2943  -21.4322 C   0  0  0  0  0  0  0  0  0  0  0  0
  -13.8558  -20.8841  -17.5728 N   0  0  0  0  0  0  0  0  0  0  0  0
  -17.6277  -18.6730  -17.3035 N   0  0  0  0  0  0  0  0  0  0  0  0
  -21.0605  -14.0198  -14.0352 N   0  0  0  0  0  0  0  0  0  0  0  0
  -13.0595  -22.7524  -18.4828 O   0  0  0  0  0  0  0  0  0  0  0  0
  -15.2655  -22.6164  -17.9700 O   0  0  0  0  0  0  0  0  0  0  0  0
  -14.1398  -18.0261  -18.2488 O   0  0  0  0  0  0  0  0  0  0  0  0
  -17.2285  -19.2153  -14.8721 O   0  0  0  0  0  0  0  0  0  0  0  0
  -19.3277  -20.0179  -15.9931 O   0  0  0  0  0  0  0  0  0  0  0  0
  -11.6621  -24.2112  -20.7081 O   0  0  0  0  0  0  0  0  0  0  0  0
  -18.2998  -19.0018  -15.7810 S   0  0  0  0  0  0  0  0  0  0  0  0
  -12.0608  -25.7781  -19.4210 H   0  0  0  0  0  0  0  0  0  0  0  0
  -11.2093  -24.3863  -18.6832 H   0  0  0  0  0  0  0  0  0  0  0  0
  -14.1211  -22.7592  -20.6115 H   0  0  0  0  0  0  0  0  0  0  0  0
  -14.8619  -24.3804  -20.5808 H   0  0  0  0  0  0  0  0  0  0  0  0
  -13.9378  -24.6726  -18.3954 H   0  0  0  0  0  0  0  0  0  0  0  0
  -15.7047  -20.5463  -16.6293 H   0  0  0  0  0  0  0  0  0  0  0  0
  -15.5956  -19.3694  -18.8110 H   0  0  0  0  0  0  0  0  0  0  0  0
  -14.7644  -18.7486  -15.1261 H   0  0  0  0  0  0  0  0  0  0  0  0
  -13.1959  -18.9334  -15.9220 H   0  0  0  0  0  0  0  0  0  0  0  0
  -11.6845  -20.5711  -15.2418 H   0  0  0  0  0  0  0  0  0  0  0  0
  -15.7480  -20.7139  -13.8501 H   0  0  0  0  0  0  0  0  0  0  0  0
  -11.1446  -22.4727  -13.7364 H   0  0  0  0  0  0  0  0  0  0  0  0
  -15.1885  -22.5320  -12.2771 H   0  0  0  0  0  0  0  0  0  0  0  0
  -12.9177  -23.5146  -12.3825 H   0  0  0  0  0  0  0  0  0  0  0  0
  -16.4094  -17.0790  -17.9165 H   0  0  0  0  0  0  0  0  0  0  0  0
  -16.0683  -17.6876  -16.3097 H   0  0  0  0  0  0  0  0  0  0  0  0
  -19.5533  -18.5469  -18.0919 H   0  0  0  0  0  0  0  0  0  0  0  0
  -18.4799  -17.1876  -18.4803 H   0  0  0  0  0  0  0  0  0  0  0  0
  -17.2516  -18.6170  -20.0999 H   0  0  0  0  0  0  0  0  0  0  0  0
  -17.4800  -16.8216  -14.0523 H   0  0  0  0  0  0  0  0  0  0  0  0
  -18.6193  -14.7404  -13.4320 H   0  0  0  0  0  0  0  0  0  0  0  0
  -22.1997  -16.0124  -15.3345 H   0  0  0  0  0  0  0  0  0  0  0  0
  -20.9999  -17.9979  -16.2110 H   0  0  0  0  0  0  0  0  0  0  0  0
  -18.1575  -20.8123  -20.7577 H   0  0  0  0  0  0  0  0  0  0  0  0
  -19.3724  -20.7241  -19.4625 H   0  0  0  0  0  0  0  0  0  0  0  0
  -17.6443  -20.8596  -19.0553 H   0  0  0  0  0  0  0  0  0  0  0  0
  -19.2832  -17.2720  -20.7648 H   0  0  0  0  0  0  0  0  0  0  0  0
  -20.3184  -18.6672  -20.3936 H   0  0  0  0  0  0  0  0  0  0  0  0
  -19.1566  -18.7589  -21.7346 H   0  0  0  0  0  0  0  0  0  0  0  0
  -12.8734  -23.6762  -22.3372 H   0  0  0  0  0  0  0  0  0  0  0  0
  -13.0679  -25.3412  -21.7233 H   0  0  0  0  0  0  0  0  0  0  0  0
  -12.9035  -20.5931  -17.6749 H   0  0  0  0  0  0  0  0  0  0  0  0
  -20.5345  -13.2988  -13.5625 H   0  0  0  0  0  0  0  0  0  0  0  0
  -22.0458  -13.9049  -14.2137 H   0  0  0  0  0  0  0  0  0  0  0  0
  -13.8490  -17.5552  -17.4479 H   0  0  0  0  0  0  0  0  0  0  0  0
  1  4  1  0  0  0  0
  1 34  1  0  0  0  0
  1 36  1  0  0  0  0
  1 37  1  0  0  0  0
  2  4  1  0  0  0  0
  2 25  1  0  0  0  0
  2 38  1  0  0  0  0
  2 39  1  0  0  0  0
  3 26  1  0  0  0  0
  3 29  1  0  0  0  0
  3 30  2  0  0  0  0
  4 29  1  0  0  0  0
  4 40  1  1  0  0  0
  5  6  1  0  0  0  0
  5  7  1  0  0  0  0
  5 26  1  0  0  0  0
  5 41  1  1  0  0  0
  6 14  1  0  0  0  0
  6 31  1  0  0  0  0
  6 42  1  6  0  0  0
  7  8  1  0  0  0  0
  7 43  1  0  0  0  0
  7 44  1  0  0  0  0
  8  9  2  0  0  0  0
  8 10  1  0  0  0  0
  9 11  1  0  0  0  0
  9 45  1  0  0  0  0
 10 12  2  0  0  0  0
 10 46  1  0  0  0  0
 11 13  2  0  0  0  0
 11 47  1  0  0  0  0
 12 13  1  0  0  0  0
 12 48  1  0  0  0  0
 13 49  1  0  0  0  0
 14 27  1  0  0  0  0
 14 50  1  0  0  0  0
 14 51  1  0  0  0  0
 15 16  1  0  0  0  0
 15 27  1  0  0  0  0
 15 52  1  0  0  0  0
 15 53  1  0  0  0  0
 16 23  1  0  0  0  0
 16 24  1  0  0  0  0
 16 54  1  0  0  0  0
 17 18  2  0  0  0  0
 17 22  1  0  0  0  0
 17 35  1  0  0  0  0
 18 19  1  0  0  0  0
 18 55  1  0  0  0  0
 19 20  2  0  0  0  0
 19 56  1  0  0  0  0
 20 21  1  0  0  0  0
 20 28  1  0  0  0  0
 21 22  2  0  0  0  0
 21 57  1  0  0  0  0
 22 58  1  0  0  0  0
 23 59  1  0  0  0  0
 23 60  1  0  0  0  0
 23 61  1  0  0  0  0
 24 62  1  0  0  0  0
 24 63  1  0  0  0  0
 24 64  1  0  0  0  0
 25 34  1  0  0  0  0
 25 65  1  0  0  0  0
 25 66  1  0  0  0  0
 26 67  1  0  0  0  0
 27 35  1  0  0  0  0
 28 68  1  0  0  0  0
 28 69  1  0  0  0  0
 31 70  1  0  0  0  0
 32 35  2  0  0  0  0
 33 35  2  0  0  0  0
M  END
$$$$
