478
 OpenBabel04091911443D

 70 72  0  0  1  0  0  0  0  0999 V2000
   23.4004   25.8887   10.7861 C   0  0  0  0  0  0  0  0  0  0  0  0
   24.4430   27.7877   11.7793 C   0  0  0  0  0  0  0  0  0  0  0  0
   21.4779   28.2582   12.6843 C   0  0  0  0  0  0  0  0  0  0  0  0
   23.1074   27.2912   11.2771 C   0  0  2  0  0  0  0  0  0  0  0  0
   19.6177   28.7955   14.2400 C   0  0  2  0  0  0  0  0  0  0  0  0
   19.9564   29.1785   15.6881 C   0  0  1  0  0  0  0  0  0  0  0  0
   18.2806   28.0291   14.0945 C   0  0  0  0  0  0  0  0  0  0  0  0
   18.0111   27.6372   12.6624 C   0  0  0  0  0  0  0  0  0  0  0  0
   18.4059   26.3815   12.1826 C   0  0  0  0  0  0  0  0  0  0  0  0
   17.4376   28.5577   11.7800 C   0  0  0  0  0  0  0  0  0  0  0  0
   18.2239   26.0535   10.8406 C   0  0  0  0  0  0  0  0  0  0  0  0
   17.2504   28.2263   10.4409 C   0  0  0  0  0  0  0  0  0  0  0  0
   17.6375   26.9725    9.9730 C   0  0  0  0  0  0  0  0  0  0  0  0
   19.0352   30.2495   16.2676 C   0  0  0  0  0  0  0  0  0  0  0  0
   20.1106   32.4803   16.4653 C   0  0  0  0  0  0  0  0  0  0  0  0
   21.6183   32.1993   16.4351 C   0  0  0  0  0  0  0  0  0  0  0  0
   17.0678   33.0237   15.7469 C   0  0  0  0  0  0  0  0  0  0  0  0
   16.0577   32.3016   16.3864 C   0  0  0  0  0  0  0  0  0  0  0  0
   15.1750   32.9697   17.2212 C   0  0  0  0  0  0  0  0  0  0  0  0
   15.2780   34.3508   17.4032 C   0  0  0  0  0  0  0  0  0  0  0  0
   16.2858   35.0634   16.7525 C   0  0  0  0  0  0  0  0  0  0  0  0
   17.1869   34.4044   15.9147 C   0  0  0  0  0  0  0  0  0  0  0  0
   22.2302   32.2378   15.0367 C   0  0  0  0  0  0  0  0  0  0  0  0
   22.3257   33.2498   17.2896 C   0  0  0  0  0  0  0  0  0  0  0  0
   25.2702   26.5313   11.9789 C   0  0  0  0  0  0  0  0  0  0  0  0
   20.6973   27.9547   13.7497 N   0  0  0  0  0  0  0  0  0  0  0  0
   19.3307   31.5408   15.6253 N   0  0  0  0  0  0  0  0  0  0  0  0
   14.4014   34.9943   18.2558 N   0  0  0  0  0  0  0  0  0  0  0  0
   22.2095   27.1646   12.3907 O   0  0  0  0  0  0  0  0  0  0  0  0
   21.5233   29.3263   12.0962 O   0  0  0  0  0  0  0  0  0  0  0  0
   19.9696   28.0290   16.5476 O   0  0  0  0  0  0  0  0  0  0  0  0
   17.3705   31.1053   14.0435 O   0  0  0  0  0  0  0  0  0  0  0  0
   18.7475   33.1922   13.7793 O   0  0  0  0  0  0  0  0  0  0  0  0
   24.4686   25.4028   11.6130 O   0  0  0  0  0  0  0  0  0  0  0  0
   18.1287   32.1861   14.6124 S   0  0  0  0  0  0  0  0  0  0  0  0
   23.7470   25.8785    9.7475 H   0  0  0  0  0  0  0  0  0  0  0  0
   22.5396   25.2193   10.8860 H   0  0  0  0  0  0  0  0  0  0  0  0
   24.3556   28.3435   12.7206 H   0  0  0  0  0  0  0  0  0  0  0  0
   24.9317   28.4434   11.0510 H   0  0  0  0  0  0  0  0  0  0  0  0
   22.6736   27.9140   10.4853 H   0  0  0  0  0  0  0  0  0  0  0  0
   19.5745   29.7004   13.6181 H   0  0  0  0  0  0  0  0  0  0  0  0
   20.9859   29.5540   15.6894 H   0  0  0  0  0  0  0  0  0  0  0  0
   17.4368   28.6234   14.4598 H   0  0  0  0  0  0  0  0  0  0  0  0
   18.2901   27.1212   14.7096 H   0  0  0  0  0  0  0  0  0  0  0  0
   18.8778   25.6623   12.8475 H   0  0  0  0  0  0  0  0  0  0  0  0
   17.1445   29.5447   12.1294 H   0  0  0  0  0  0  0  0  0  0  0  0
   18.5432   25.0833   10.4720 H   0  0  0  0  0  0  0  0  0  0  0  0
   16.8084   28.9526    9.7650 H   0  0  0  0  0  0  0  0  0  0  0  0
   17.4824   26.7136    8.9299 H   0  0  0  0  0  0  0  0  0  0  0  0
   19.1688   30.3109   17.3540 H   0  0  0  0  0  0  0  0  0  0  0  0
   17.9906   29.9568   16.1368 H   0  0  0  0  0  0  0  0  0  0  0  0
   19.9296   33.5119   16.1552 H   0  0  0  0  0  0  0  0  0  0  0  0
   19.7521   32.3950   17.4978 H   0  0  0  0  0  0  0  0  0  0  0  0
   21.8155   31.2141   16.8742 H   0  0  0  0  0  0  0  0  0  0  0  0
   15.9391   31.2349   16.2197 H   0  0  0  0  0  0  0  0  0  0  0  0
   14.3854   32.4080   17.7176 H   0  0  0  0  0  0  0  0  0  0  0  0
   16.3747   36.1395   16.8758 H   0  0  0  0  0  0  0  0  0  0  0  0
   17.9598   34.9669   15.3953 H   0  0  0  0  0  0  0  0  0  0  0  0
   23.3094   32.0496   15.0967 H   0  0  0  0  0  0  0  0  0  0  0  0
   22.0897   33.2191   14.5717 H   0  0  0  0  0  0  0  0  0  0  0  0
   21.7984   31.4772   14.3825 H   0  0  0  0  0  0  0  0  0  0  0  0
   21.9145   33.2714   18.3029 H   0  0  0  0  0  0  0  0  0  0  0  0
   22.2074   34.2469   16.8498 H   0  0  0  0  0  0  0  0  0  0  0  0
   23.3966   33.0341   17.3553 H   0  0  0  0  0  0  0  0  0  0  0  0
   25.6018   26.4215   13.0159 H   0  0  0  0  0  0  0  0  0  0  0  0
   26.1593   26.5407   11.3392 H   0  0  0  0  0  0  0  0  0  0  0  0
   20.8427   27.0595   14.1801 H   0  0  0  0  0  0  0  0  0  0  0  0
   13.6498   34.4818   18.6948 H   0  0  0  0  0  0  0  0  0  0  0  0
   14.4291   35.9973   18.3611 H   0  0  0  0  0  0  0  0  0  0  0  0
   19.0662   27.6766   16.6005 H   0  0  0  0  0  0  0  0  0  0  0  0
  1  4  1  0  0  0  0
  1 34  1  0  0  0  0
  1 36  1  0  0  0  0
  1 37  1  0  0  0  0
  2  4  1  0  0  0  0
  2 25  1  0  0  0  0
  2 38  1  0  0  0  0
  2 39  1  0  0  0  0
  3 26  1  0  0  0  0
  3 29  1  0  0  0  0
  3 30  2  0  0  0  0
  4 29  1  0  0  0  0
  4 40  1  6  0  0  0
  5  6  1  0  0  0  0
  5  7  1  0  0  0  0
  5 26  1  0  0  0  0
  5 41  1  6  0  0  0
  6 14  1  0  0  0  0
  6 31  1  0  0  0  0
  6 42  1  6  0  0  0
  7  8  1  0  0  0  0
  7 43  1  0  0  0  0
  7 44  1  0  0  0  0
  8  9  2  0  0  0  0
  8 10  1  0  0  0  0
  9 11  1  0  0  0  0
  9 45  1  0  0  0  0
 10 12  2  0  0  0  0
 10 46  1  0  0  0  0
 11 13  2  0  0  0  0
 11 47  1  0  0  0  0
 12 13  1  0  0  0  0
 12 48  1  0  0  0  0
 13 49  1  0  0  0  0
 14 27  1  0  0  0  0
 14 50  1  0  0  0  0
 14 51  1  0  0  0  0
 15 16  1  0  0  0  0
 15 27  1  0  0  0  0
 15 52  1  0  0  0  0
 15 53  1  0  0  0  0
 16 23  1  0  0  0  0
 16 24  1  0  0  0  0
 16 54  1  0  0  0  0
 17 18  2  0  0  0  0
 17 22  1  0  0  0  0
 17 35  1  0  0  0  0
 18 19  1  0  0  0  0
 18 55  1  0  0  0  0
 19 20  2  0  0  0  0
 19 56  1  0  0  0  0
 20 21  1  0  0  0  0
 20 28  1  0  0  0  0
 21 22  2  0  0  0  0
 21 57  1  0  0  0  0
 22 58  1  0  0  0  0
 23 59  1  0  0  0  0
 23 60  1  0  0  0  0
 23 61  1  0  0  0  0
 24 62  1  0  0  0  0
 24 63  1  0  0  0  0
 24 64  1  0  0  0  0
 25 34  1  0  0  0  0
 25 65  1  0  0  0  0
 25 66  1  0  0  0  0
 26 67  1  0  0  0  0
 27 35  1  0  0  0  0
 28 68  1  0  0  0  0
 28 69  1  0  0  0  0
 31 70  1  0  0  0  0
 32 35  2  0  0  0  0
 33 35  2  0  0  0  0
M  END
$$$$
