478
 OpenBabel04091915103D

 70 72  0  0  1  0  0  0  0  0999 V2000
   12.6447   18.2271   19.7524 C   0  0  0  0  0  0  0  0  0  0  0  0
   14.6047   19.0526   20.8615 C   0  0  0  0  0  0  0  0  0  0  0  0
   14.7844   20.7533   18.3322 C   0  0  0  0  0  0  0  0  0  0  0  0
   14.0001   18.8467   19.4860 C   0  0  2  0  0  0  0  0  0  0  0  0
   15.2623   22.9057   17.1849 C   0  0  2  0  0  0  0  0  0  0  0  0
   15.6912   24.0521   18.1352 C   0  0  1  0  0  0  0  0  0  0  0  0
   14.4687   23.3814   15.9525 C   0  0  0  0  0  0  0  0  0  0  0  0
   14.0715   22.2409   15.0401 C   0  0  0  0  0  0  0  0  0  0  0  0
   12.7742   21.7368   15.0147 C   0  0  0  0  0  0  0  0  0  0  0  0
   15.0450   21.6319   14.2302 C   0  0  0  0  0  0  0  0  0  0  0  0
   12.4867   20.5990   14.2577 C   0  0  0  0  0  0  0  0  0  0  0  0
   14.7514   20.5335   13.4261 C   0  0  0  0  0  0  0  0  0  0  0  0
   13.4743   20.0021   13.4676 C   0  0  0  0  0  0  0  0  0  0  0  0
   16.7438   24.9848   17.5421 C   0  0  0  0  0  0  0  0  0  0  0  0
   18.9237   24.6851   18.6881 C   0  0  0  0  0  0  0  0  0  0  0  0
   18.6474   23.9615   20.0077 C   0  0  0  0  0  0  0  0  0  0  0  0
   19.4476   25.4639   15.4806 C   0  0  0  0  0  0  0  0  0  0  0  0
   18.7083   26.2928   14.6286 C   0  0  0  0  0  0  0  0  0  0  0  0
   19.2440   27.5344   14.2339 C   0  0  0  0  0  0  0  0  0  0  0  0
   20.5295   27.8936   14.6223 C   0  0  0  0  0  0  0  0  0  0  0  0
   21.2628   27.0459   15.4242 C   0  0  0  0  0  0  0  0  0  0  0  0
   20.7244   25.8371   15.8838 C   0  0  0  0  0  0  0  0  0  0  0  0
   18.8754   22.4611   19.8720 C   0  0  0  0  0  0  0  0  0  0  0  0
   19.6521   24.5415   21.0088 C   0  0  0  0  0  0  0  0  0  0  0  0
   13.5185   18.6439   21.8331 C   0  0  0  0  0  0  0  0  0  0  0  0
   14.4203   21.9662   17.9183 N   0  0  0  0  0  0  0  0  0  0  0  0
   18.0501   24.3372   17.5665 N   0  0  0  0  0  0  0  0  0  0  0  0
   21.1252   29.0609   14.1619 N   0  0  0  0  0  0  0  0  0  0  0  0
   13.7452   20.1412   18.8906 O   0  0  0  0  0  0  0  0  0  0  0  0
   15.8862   20.2610   18.2362 O   0  0  0  0  0  0  0  0  0  0  0  0
   14.5580   24.8672   18.4838 O   0  0  0  0  0  0  0  0  0  0  0  0
   17.6581   23.6735   15.1817 O   0  0  0  0  0  0  0  0  0  0  0  0
   19.7771   22.9439   16.3268 O   0  0  0  0  0  0  0  0  0  0  0  0
   12.2946   18.6657   21.0808 O   0  0  0  0  0  0  0  0  0  0  0  0
   18.7839   23.9431   16.0658 S   0  0  0  0  0  0  0  0  0  0  0  0
   12.6830   17.1317   19.7455 H   0  0  0  0  0  0  0  0  0  0  0  0
   11.8849   18.5669   19.0405 H   0  0  0  0  0  0  0  0  0  0  0  0
   14.8649   20.1044   21.0177 H   0  0  0  0  0  0  0  0  0  0  0  0
   15.5014   18.4470   21.0069 H   0  0  0  0  0  0  0  0  0  0  0  0
   14.6128   18.2280   18.8168 H   0  0  0  0  0  0  0  0  0  0  0  0
   16.1686   22.3880   16.8532 H   0  0  0  0  0  0  0  0  0  0  0  0
   16.0638   23.5896   19.0608 H   0  0  0  0  0  0  0  0  0  0  0  0
   15.0709   24.0895   15.3783 H   0  0  0  0  0  0  0  0  0  0  0  0
   13.5620   23.9094   16.2831 H   0  0  0  0  0  0  0  0  0  0  0  0
   11.9803   22.2146   15.5854 H   0  0  0  0  0  0  0  0  0  0  0  0
   16.0493   22.0264   14.2346 H   0  0  0  0  0  0  0  0  0  0  0  0
   11.4885   20.1723   14.2812 H   0  0  0  0  0  0  0  0  0  0  0  0
   15.5245   20.0997   12.7891 H   0  0  0  0  0  0  0  0  0  0  0  0
   13.2285   19.1203   12.8809 H   0  0  0  0  0  0  0  0  0  0  0  0
   16.7605   25.9296   18.0982 H   0  0  0  0  0  0  0  0  0  0  0  0
   16.4675   25.2390   16.5200 H   0  0  0  0  0  0  0  0  0  0  0  0
   19.9466   24.4366   18.3962 H   0  0  0  0  0  0  0  0  0  0  0  0
   18.8554   25.7627   18.8656 H   0  0  0  0  0  0  0  0  0  0  0  0
   17.6311   24.1441   20.3781 H   0  0  0  0  0  0  0  0  0  0  0  0
   17.7055   26.0184   14.3198 H   0  0  0  0  0  0  0  0  0  0  0  0
   18.6713   28.1657   13.5616 H   0  0  0  0  0  0  0  0  0  0  0  0
   22.2991   27.2638   15.6694 H   0  0  0  0  0  0  0  0  0  0  0  0
   21.2617   25.2443   16.5917 H   0  0  0  0  0  0  0  0  0  0  0  0
   18.6977   21.9473   20.8241 H   0  0  0  0  0  0  0  0  0  0  0  0
   19.9083   22.2636   19.5636 H   0  0  0  0  0  0  0  0  0  0  0  0
   18.2030   22.0412   19.1198 H   0  0  0  0  0  0  0  0  0  0  0  0
   19.4936   25.6208   21.1241 H   0  0  0  0  0  0  0  0  0  0  0  0
   20.6760   24.3909   20.6408 H   0  0  0  0  0  0  0  0  0  0  0  0
   19.5641   24.0681   21.9894 H   0  0  0  0  0  0  0  0  0  0  0  0
   13.4511   19.3200   22.6924 H   0  0  0  0  0  0  0  0  0  0  0  0
   13.6785   17.6244   22.2077 H   0  0  0  0  0  0  0  0  0  0  0  0
   13.4691   22.2465   18.1340 H   0  0  0  0  0  0  0  0  0  0  0  0
   20.6024   29.7258   13.6266 H   0  0  0  0  0  0  0  0  0  0  0  0
   22.1052   29.2112   14.3559 H   0  0  0  0  0  0  0  0  0  0  0  0
   14.2569   25.3020   17.6623 H   0  0  0  0  0  0  0  0  0  0  0  0
  1  4  1  0  0  0  0
  1 34  1  0  0  0  0
  1 36  1  0  0  0  0
  1 37  1  0  0  0  0
  2  4  1  0  0  0  0
  2 25  1  0  0  0  0
  2 38  1  0  0  0  0
  2 39  1  0  0  0  0
  3 26  1  0  0  0  0
  3 29  1  0  0  0  0
  3 30  2  0  0  0  0
  4 29  1  0  0  0  0
  4 40  1  6  0  0  0
  5  6  1  0  0  0  0
  5  7  1  0  0  0  0
  5 26  1  0  0  0  0
  5 41  1  6  0  0  0
  6 14  1  0  0  0  0
  6 31  1  0  0  0  0
  6 42  1  1  0  0  0
  7  8  1  0  0  0  0
  7 43  1  0  0  0  0
  7 44  1  0  0  0  0
  8  9  2  0  0  0  0
  8 10  1  0  0  0  0
  9 11  1  0  0  0  0
  9 45  1  0  0  0  0
 10 12  2  0  0  0  0
 10 46  1  0  0  0  0
 11 13  2  0  0  0  0
 11 47  1  0  0  0  0
 12 13  1  0  0  0  0
 12 48  1  0  0  0  0
 13 49  1  0  0  0  0
 14 27  1  0  0  0  0
 14 50  1  0  0  0  0
 14 51  1  0  0  0  0
 15 16  1  0  0  0  0
 15 27  1  0  0  0  0
 15 52  1  0  0  0  0
 15 53  1  0  0  0  0
 16 23  1  0  0  0  0
 16 24  1  0  0  0  0
 16 54  1  0  0  0  0
 17 18  2  0  0  0  0
 17 22  1  0  0  0  0
 17 35  1  0  0  0  0
 18 19  1  0  0  0  0
 18 55  1  0  0  0  0
 19 20  2  0  0  0  0
 19 56  1  0  0  0  0
 20 21  1  0  0  0  0
 20 28  1  0  0  0  0
 21 22  2  0  0  0  0
 21 57  1  0  0  0  0
 22 58  1  0  0  0  0
 23 59  1  0  0  0  0
 23 60  1  0  0  0  0
 23 61  1  0  0  0  0
 24 62  1  0  0  0  0
 24 63  1  0  0  0  0
 24 64  1  0  0  0  0
 25 34  1  0  0  0  0
 25 65  1  0  0  0  0
 25 66  1  0  0  0  0
 26 67  1  0  0  0  0
 27 35  1  0  0  0  0
 28 68  1  0  0  0  0
 28 69  1  0  0  0  0
 31 70  1  0  0  0  0
 32 35  2  0  0  0  0
 33 35  2  0  0  0  0
M  END
$$$$
