478
 OpenBabel04091914073D

 70 72  0  0  1  0  0  0  0  0999 V2000
   12.2485   18.0825   19.6393 C   0  0  0  0  0  0  0  0  0  0  0  0
   14.2154   18.9113   20.7180 C   0  0  0  0  0  0  0  0  0  0  0  0
   14.3153   20.6767   18.1697 C   0  0  0  0  0  0  0  0  0  0  0  0
   13.5646   18.7828   19.3505 C   0  0  2  0  0  0  0  0  0  0  0  0
   14.8505   22.8151   17.0278 C   0  0  2  0  0  0  0  0  0  0  0  0
   15.2999   23.9872   17.9367 C   0  0  1  0  0  0  0  0  0  0  0  0
   14.1432   23.2927   15.7414 C   0  0  0  0  0  0  0  0  0  0  0  0
   13.7208   22.1542   14.8458 C   0  0  0  0  0  0  0  0  0  0  0  0
   12.4040   21.6752   14.8783 C   0  0  0  0  0  0  0  0  0  0  0  0
   14.6534   21.5308   14.0090 C   0  0  0  0  0  0  0  0  0  0  0  0
   12.0338   20.5875   14.0923 C   0  0  0  0  0  0  0  0  0  0  0  0
   14.2838   20.4338   13.2331 C   0  0  0  0  0  0  0  0  0  0  0  0
   12.9770   19.9558   13.2814 C   0  0  0  0  0  0  0  0  0  0  0  0
   16.3864   24.9025   17.3271 C   0  0  0  0  0  0  0  0  0  0  0  0
   18.6668   24.6557   18.3285 C   0  0  0  0  0  0  0  0  0  0  0  0
   18.3777   24.0051   19.6877 C   0  0  0  0  0  0  0  0  0  0  0  0
   19.1319   25.3937   15.2437 C   0  0  0  0  0  0  0  0  0  0  0  0
   18.4072   26.3197   14.4923 C   0  0  0  0  0  0  0  0  0  0  0  0
   19.0322   27.5003   14.0679 C   0  0  0  0  0  0  0  0  0  0  0  0
   20.3844   27.7390   14.3470 C   0  0  0  0  0  0  0  0  0  0  0  0
   21.0961   26.7931   15.0903 C   0  0  0  0  0  0  0  0  0  0  0  0
   20.4851   25.6146   15.5209 C   0  0  0  0  0  0  0  0  0  0  0  0
   18.3998   22.4773   19.6092 C   0  0  0  0  0  0  0  0  0  0  0  0
   19.4152   24.4823   20.7066 C   0  0  0  0  0  0  0  0  0  0  0  0
   13.1500   18.4468   21.6949 C   0  0  0  0  0  0  0  0  0  0  0  0
   13.9553   21.9309   17.7886 N   0  0  0  0  0  0  0  0  0  0  0  0
   17.7057   24.2248   17.2787 N   0  0  0  0  0  0  0  0  0  0  0  0
   20.9438   28.9870   14.0873 N   0  0  0  0  0  0  0  0  0  0  0  0
   13.2771   20.0975   18.8249 O   0  0  0  0  0  0  0  0  0  0  0  0
   15.3989   20.1595   17.9832 O   0  0  0  0  0  0  0  0  0  0  0  0
   14.1682   24.7847   18.3357 O   0  0  0  0  0  0  0  0  0  0  0  0
   17.2885   23.5987   14.8349 O   0  0  0  0  0  0  0  0  0  0  0  0
   19.4388   22.9035   15.9462 O   0  0  0  0  0  0  0  0  0  0  0  0
   11.9096   18.4552   20.9830 O   0  0  0  0  0  0  0  0  0  0  0  0
   18.3749   23.8654   15.7525 S   0  0  0  0  0  0  0  0  0  0  0  0
   12.3673   16.9922   19.6231 H   0  0  0  0  0  0  0  0  0  0  0  0
   11.4385   18.3697   18.9632 H   0  0  0  0  0  0  0  0  0  0  0  0
   14.5091   19.9440   20.9376 H   0  0  0  0  0  0  0  0  0  0  0  0
   15.1111   18.2884   20.8112 H   0  0  0  0  0  0  0  0  0  0  0  0
   14.1539   18.2049   18.6297 H   0  0  0  0  0  0  0  0  0  0  0  0
   15.7369   22.2332   16.7534 H   0  0  0  0  0  0  0  0  0  0  0  0
   15.6782   23.5553   18.8695 H   0  0  0  0  0  0  0  0  0  0  0  0
   14.7953   23.9534   15.1617 H   0  0  0  0  0  0  0  0  0  0  0  0
   13.2606   23.8951   15.9865 H   0  0  0  0  0  0  0  0  0  0  0  0
   11.6679   22.1345   15.5340 H   0  0  0  0  0  0  0  0  0  0  0  0
   15.6805   21.8839   13.9655 H   0  0  0  0  0  0  0  0  0  0  0  0
   11.0118   20.2224   14.1207 H   0  0  0  0  0  0  0  0  0  0  0  0
   15.0225   19.9501   12.5995 H   0  0  0  0  0  0  0  0  0  0  0  0
   12.6951   19.0887   12.6930 H   0  0  0  0  0  0  0  0  0  0  0  0
   16.4563   25.8162   17.9301 H   0  0  0  0  0  0  0  0  0  0  0  0
   16.0765   25.2627   16.3424 H   0  0  0  0  0  0  0  0  0  0  0  0
   19.6916   24.4013   18.0386 H   0  0  0  0  0  0  0  0  0  0  0  0
   18.6327   25.7486   18.4168 H   0  0  0  0  0  0  0  0  0  0  0  0
   17.3923   24.3257   20.0447 H   0  0  0  0  0  0  0  0  0  0  0  0
   17.3671   26.1384   14.2311 H   0  0  0  0  0  0  0  0  0  0  0  0
   18.4543   28.2284   13.5065 H   0  0  0  0  0  0  0  0  0  0  0  0
   22.1446   26.9617   15.3290 H   0  0  0  0  0  0  0  0  0  0  0  0
   21.0700   24.8785   16.0689 H   0  0  0  0  0  0  0  0  0  0  0  0
   18.2247   22.0369   20.5968 H   0  0  0  0  0  0  0  0  0  0  0  0
   19.3671   22.1148   19.2441 H   0  0  0  0  0  0  0  0  0  0  0  0
   17.6238   22.0962   18.9390 H   0  0  0  0  0  0  0  0  0  0  0  0
   19.4099   25.5742   20.7871 H   0  0  0  0  0  0  0  0  0  0  0  0
   20.4243   24.1685   20.4180 H   0  0  0  0  0  0  0  0  0  0  0  0
   19.2032   24.0709   21.6990 H   0  0  0  0  0  0  0  0  0  0  0  0
   13.0804   19.0804   22.5836 H   0  0  0  0  0  0  0  0  0  0  0  0
   13.3411   17.4167   22.0173 H   0  0  0  0  0  0  0  0  0  0  0  0
   13.0605   22.2647   18.1060 H   0  0  0  0  0  0  0  0  0  0  0  0
   20.4987   29.5611   13.3805 H   0  0  0  0  0  0  0  0  0  0  0  0
   21.9557   29.0548   14.1136 H   0  0  0  0  0  0  0  0  0  0  0  0
   13.8112   25.2348   17.5519 H   0  0  0  0  0  0  0  0  0  0  0  0
  1  4  1  0  0  0  0
  1 34  1  0  0  0  0
  1 36  1  0  0  0  0
  1 37  1  0  0  0  0
  2  4  1  0  0  0  0
  2 25  1  0  0  0  0
  2 38  1  0  0  0  0
  2 39  1  0  0  0  0
  3 26  1  0  0  0  0
  3 29  1  0  0  0  0
  3 30  2  0  0  0  0
  4 29  1  0  0  0  0
  4 40  1  6  0  0  0
  5  6  1  0  0  0  0
  5  7  1  0  0  0  0
  5 26  1  0  0  0  0
  5 41  1  6  0  0  0
  6 14  1  0  0  0  0
  6 31  1  0  0  0  0
  6 42  1  1  0  0  0
  7  8  1  0  0  0  0
  7 43  1  0  0  0  0
  7 44  1  0  0  0  0
  8  9  2  0  0  0  0
  8 10  1  0  0  0  0
  9 11  1  0  0  0  0
  9 45  1  0  0  0  0
 10 12  2  0  0  0  0
 10 46  1  0  0  0  0
 11 13  2  0  0  0  0
 11 47  1  0  0  0  0
 12 13  1  0  0  0  0
 12 48  1  0  0  0  0
 13 49  1  0  0  0  0
 14 27  1  0  0  0  0
 14 50  1  0  0  0  0
 14 51  1  0  0  0  0
 15 16  1  0  0  0  0
 15 27  1  0  0  0  0
 15 52  1  0  0  0  0
 15 53  1  0  0  0  0
 16 23  1  0  0  0  0
 16 24  1  0  0  0  0
 16 54  1  0  0  0  0
 17 18  2  0  0  0  0
 17 22  1  0  0  0  0
 17 35  1  0  0  0  0
 18 19  1  0  0  0  0
 18 55  1  0  0  0  0
 19 20  2  0  0  0  0
 19 56  1  0  0  0  0
 20 21  1  0  0  0  0
 20 28  1  0  0  0  0
 21 22  2  0  0  0  0
 21 57  1  0  0  0  0
 22 58  1  0  0  0  0
 23 59  1  0  0  0  0
 23 60  1  0  0  0  0
 23 61  1  0  0  0  0
 24 62  1  0  0  0  0
 24 63  1  0  0  0  0
 24 64  1  0  0  0  0
 25 34  1  0  0  0  0
 25 65  1  0  0  0  0
 25 66  1  0  0  0  0
 26 67  1  0  0  0  0
 27 35  1  0  0  0  0
 28 68  1  0  0  0  0
 28 69  1  0  0  0  0
 31 70  1  0  0  0  0
 32 35  2  0  0  0  0
 33 35  2  0  0  0  0
M  END
$$$$
