478
 OpenBabel04091914083D

 70 72  0  0  1  0  0  0  0  0999 V2000
   16.6051   25.3143   19.4605 C   0  0  0  0  0  0  0  0  0  0  0  0
   14.6227   24.5283   20.5456 C   0  0  0  0  0  0  0  0  0  0  0  0
   14.4079   22.7268   18.1088 C   0  0  0  0  0  0  0  0  0  0  0  0
   15.2617   24.6595   19.1695 C   0  0  2  0  0  0  0  0  0  0  0  0
   13.8526   20.5747   16.9976 C   0  0  2  0  0  0  0  0  0  0  0  0
   13.4243   19.4290   17.9475 C   0  0  1  0  0  0  0  0  0  0  0  0
   14.5753   20.0663   15.7355 C   0  0  0  0  0  0  0  0  0  0  0  0
   14.9759   21.1917   14.8120 C   0  0  0  0  0  0  0  0  0  0  0  0
   16.2941   21.6648   14.7921 C   0  0  0  0  0  0  0  0  0  0  0  0
   14.0097   21.8177   14.0204 C   0  0  0  0  0  0  0  0  0  0  0  0
   16.6262   22.7720   14.0112 C   0  0  0  0  0  0  0  0  0  0  0  0
   14.3536   22.8967   13.2069 C   0  0  0  0  0  0  0  0  0  0  0  0
   15.6594   23.3733   13.2079 C   0  0  0  0  0  0  0  0  0  0  0  0
   12.3172   18.5093   17.3874 C   0  0  0  0  0  0  0  0  0  0  0  0
   10.0643   18.8003   18.4396 C   0  0  0  0  0  0  0  0  0  0  0  0
   10.4504   19.3947   19.8023 C   0  0  0  0  0  0  0  0  0  0  0  0
    9.6023   18.0217   15.2971 C   0  0  0  0  0  0  0  0  0  0  0  0
   10.3569   17.1510   14.5095 C   0  0  0  0  0  0  0  0  0  0  0  0
    9.7862   15.9598   14.0536 C   0  0  0  0  0  0  0  0  0  0  0  0
    8.4593   15.6396   14.3533 C   0  0  0  0  0  0  0  0  0  0  0  0
    7.6879   16.5649   15.0628 C   0  0  0  0  0  0  0  0  0  0  0  0
    8.2554   17.7475   15.5506 C   0  0  0  0  0  0  0  0  0  0  0  0
   10.4258   20.9238   19.7725 C   0  0  0  0  0  0  0  0  0  0  0  0
    9.4563   18.8936   20.8509 C   0  0  0  0  0  0  0  0  0  0  0  0
   15.7280   24.8894   21.5185 C   0  0  0  0  0  0  0  0  0  0  0  0
   14.7529   21.4814   17.7165 N   0  0  0  0  0  0  0  0  0  0  0  0
   11.0031   19.1942   17.3591 N   0  0  0  0  0  0  0  0  0  0  0  0
    7.9012   14.4680   13.8762 N   0  0  0  0  0  0  0  0  0  0  0  0
   15.4944   23.3422   18.6326 O   0  0  0  0  0  0  0  0  0  0  0  0
   13.2865   23.2201   18.0220 O   0  0  0  0  0  0  0  0  0  0  0  0
   14.5630   18.6240   18.3100 O   0  0  0  0  0  0  0  0  0  0  0  0
   11.3930   19.8755   14.9296 O   0  0  0  0  0  0  0  0  0  0  0  0
    9.2246   20.4878   16.0566 O   0  0  0  0  0  0  0  0  0  0  0  0
   16.9552   24.8904   20.7840 O   0  0  0  0  0  0  0  0  0  0  0  0
   10.3120   19.5601   15.8455 S   0  0  0  0  0  0  0  0  0  0  0  0
   16.5179   26.4055   19.4783 H   0  0  0  0  0  0  0  0  0  0  0  0
   17.3934   25.0213   18.7645 H   0  0  0  0  0  0  0  0  0  0  0  0
   14.2718   23.5107   20.7402 H   0  0  0  0  0  0  0  0  0  0  0  0
   13.7723   25.2065   20.6686 H   0  0  0  0  0  0  0  0  0  0  0  0
   14.6795   25.2557   18.4585 H   0  0  0  0  0  0  0  0  0  0  0  0
   12.9610   21.1485   16.7158 H   0  0  0  0  0  0  0  0  0  0  0  0
   13.0834   19.8808   18.8843 H   0  0  0  0  0  0  0  0  0  0  0  0
   13.9494   19.3661   15.1737 H   0  0  0  0  0  0  0  0  0  0  0  0
   15.4770   19.5069   16.0136 H   0  0  0  0  0  0  0  0  0  0  0  0
   17.0635   21.1884   15.3937 H   0  0  0  0  0  0  0  0  0  0  0  0
   12.9782   21.4774   14.0363 H   0  0  0  0  0  0  0  0  0  0  0  0
   17.6369   23.1684   14.0355 H   0  0  0  0  0  0  0  0  0  0  0  0
   13.5916   23.3635   12.5915 H   0  0  0  0  0  0  0  0  0  0  0  0
   15.9237   24.2182   12.5776 H   0  0  0  0  0  0  0  0  0  0  0  0
   12.2615   17.6022   18.0035 H   0  0  0  0  0  0  0  0  0  0  0  0
   12.6002   18.1403   16.3981 H   0  0  0  0  0  0  0  0  0  0  0  0
    9.0521   19.1435   18.2004 H   0  0  0  0  0  0  0  0  0  0  0  0
   10.0217   17.7058   18.5034 H   0  0  0  0  0  0  0  0  0  0  0  0
   11.4500   19.0577   20.0977 H   0  0  0  0  0  0  0  0  0  0  0  0
   11.3789   17.3928   14.2302 H   0  0  0  0  0  0  0  0  0  0  0  0
   10.3864   15.2800   13.4537 H   0  0  0  0  0  0  0  0  0  0  0  0
    6.6328   16.3714   15.2421 H   0  0  0  0  0  0  0  0  0  0  0  0
    7.6379   18.4489   16.1080 H   0  0  0  0  0  0  0  0  0  0  0  0
   10.7050   21.3351   20.7484 H   0  0  0  0  0  0  0  0  0  0  0  0
    9.4238   21.2897   19.5255 H   0  0  0  0  0  0  0  0  0  0  0  0
   11.1226   21.3253   19.0309 H   0  0  0  0  0  0  0  0  0  0  0  0
    9.4719   17.8004   20.9081 H   0  0  0  0  0  0  0  0  0  0  0  0
    8.4376   19.2042   20.5942 H   0  0  0  0  0  0  0  0  0  0  0  0
    9.6940   19.2911   21.8422 H   0  0  0  0  0  0  0  0  0  0  0  0
   15.7963   24.1902   22.3580 H   0  0  0  0  0  0  0  0  0  0  0  0
   15.5793   25.8973   21.9226 H   0  0  0  0  0  0  0  0  0  0  0  0
   15.6995   21.1971   17.9218 H   0  0  0  0  0  0  0  0  0  0  0  0
    8.4873   13.7674   13.4412 H   0  0  0  0  0  0  0  0  0  0  0  0
    6.9666   14.1955   14.1505 H   0  0  0  0  0  0  0  0  0  0  0  0
   14.8732   18.1582   17.5159 H   0  0  0  0  0  0  0  0  0  0  0  0
  1  4  1  0  0  0  0
  1 34  1  0  0  0  0
  1 36  1  0  0  0  0
  1 37  1  0  0  0  0
  2  4  1  0  0  0  0
  2 25  1  0  0  0  0
  2 38  1  0  0  0  0
  2 39  1  0  0  0  0
  3 26  1  0  0  0  0
  3 29  1  0  0  0  0
  3 30  2  0  0  0  0
  4 29  1  0  0  0  0
  4 40  1  6  0  0  0
  5  6  1  0  0  0  0
  5  7  1  0  0  0  0
  5 26  1  0  0  0  0
  5 41  1  6  0  0  0
  6 14  1  0  0  0  0
  6 31  1  0  0  0  0
  6 42  1  1  0  0  0
  7  8  1  0  0  0  0
  7 43  1  0  0  0  0
  7 44  1  0  0  0  0
  8  9  2  0  0  0  0
  8 10  1  0  0  0  0
  9 11  1  0  0  0  0
  9 45  1  0  0  0  0
 10 12  2  0  0  0  0
 10 46  1  0  0  0  0
 11 13  2  0  0  0  0
 11 47  1  0  0  0  0
 12 13  1  0  0  0  0
 12 48  1  0  0  0  0
 13 49  1  0  0  0  0
 14 27  1  0  0  0  0
 14 50  1  0  0  0  0
 14 51  1  0  0  0  0
 15 16  1  0  0  0  0
 15 27  1  0  0  0  0
 15 52  1  0  0  0  0
 15 53  1  0  0  0  0
 16 23  1  0  0  0  0
 16 24  1  0  0  0  0
 16 54  1  0  0  0  0
 17 18  2  0  0  0  0
 17 22  1  0  0  0  0
 17 35  1  0  0  0  0
 18 19  1  0  0  0  0
 18 55  1  0  0  0  0
 19 20  2  0  0  0  0
 19 56  1  0  0  0  0
 20 21  1  0  0  0  0
 20 28  1  0  0  0  0
 21 22  2  0  0  0  0
 21 57  1  0  0  0  0
 22 58  1  0  0  0  0
 23 59  1  0  0  0  0
 23 60  1  0  0  0  0
 23 61  1  0  0  0  0
 24 62  1  0  0  0  0
 24 63  1  0  0  0  0
 24 64  1  0  0  0  0
 25 34  1  0  0  0  0
 25 65  1  0  0  0  0
 25 66  1  0  0  0  0
 26 67  1  0  0  0  0
 27 35  1  0  0  0  0
 28 68  1  0  0  0  0
 28 69  1  0  0  0  0
 31 70  1  0  0  0  0
 32 35  2  0  0  0  0
 33 35  2  0  0  0  0
M  END
$$$$
