478
 OpenBabel04091915173D

 70 72  0  0  1  0  0  0  0  0999 V2000
   -2.6497    1.3788   16.0452 C   0  0  0  0  0  0  0  0  0  0  0  0
   -4.6435    1.2402   14.7292 C   0  0  0  0  0  0  0  0  0  0  0  0
   -2.9683    2.7705   12.6863 C   0  0  0  0  0  0  0  0  0  0  0  0
   -3.3755    2.0627   14.8970 C   0  0  2  0  0  0  0  0  0  0  0  0
   -2.5001    3.1572   10.2740 C   0  0  2  0  0  0  0  0  0  0  0  0
   -3.2456    2.2292    9.2725 C   0  0  1  0  0  0  0  0  0  0  0  0
   -1.1343    3.6982    9.7913 C   0  0  0  0  0  0  0  0  0  0  0  0
   -0.4166    4.4820   10.8755 C   0  0  0  0  0  0  0  0  0  0  0  0
    0.7153    3.9324   11.4931 C   0  0  0  0  0  0  0  0  0  0  0  0
   -0.9087    5.7126   11.3358 C   0  0  0  0  0  0  0  0  0  0  0  0
    1.3381    4.5919   12.5525 C   0  0  0  0  0  0  0  0  0  0  0  0
   -0.2861    6.3687   12.4009 C   0  0  0  0  0  0  0  0  0  0  0  0
    0.8331    5.8058   13.0118 C   0  0  0  0  0  0  0  0  0  0  0  0
   -3.7207    2.9023    7.9701 C   0  0  0  0  0  0  0  0  0  0  0  0
   -6.2022    3.2673    7.8026 C   0  0  0  0  0  0  0  0  0  0  0  0
   -6.8403    2.3083    8.8222 C   0  0  0  0  0  0  0  0  0  0  0  0
   -4.6783    5.8072    6.4427 C   0  0  0  0  0  0  0  0  0  0  0  0
   -3.5056    5.9190    5.6944 C   0  0  0  0  0  0  0  0  0  0  0  0
   -3.5998    6.2934    4.3493 C   0  0  0  0  0  0  0  0  0  0  0  0
   -4.8432    6.5534    3.7696 C   0  0  0  0  0  0  0  0  0  0  0  0
   -6.0047    6.4293    4.5312 C   0  0  0  0  0  0  0  0  0  0  0  0
   -5.9231    6.0739    5.8749 C   0  0  0  0  0  0  0  0  0  0  0  0
   -7.0301    2.9552   10.1940 C   0  0  0  0  0  0  0  0  0  0  0  0
   -8.2108    1.8285    8.3291 C   0  0  0  0  0  0  0  0  0  0  0  0
   -4.4813    0.0677   15.6774 C   0  0  0  0  0  0  0  0  0  0  0  0
   -2.3098    2.4369   11.5412 N   0  0  0  0  0  0  0  0  0  0  0  0
   -4.8758    3.7822    8.2489 N   0  0  0  0  0  0  0  0  0  0  0  0
   -4.9364    6.8687    2.4275 N   0  0  0  0  0  0  0  0  0  0  0  0
   -2.5793    1.9536   13.6966 O   0  0  0  0  0  0  0  0  0  0  0  0
   -3.8198    3.6411   12.7814 O   0  0  0  0  0  0  0  0  0  0  0  0
   -2.4720    1.0633    8.9511 O   0  0  0  0  0  0  0  0  0  0  0  0
   -3.2147    5.6939    8.5731 O   0  0  0  0  0  0  0  0  0  0  0  0
   -5.6814    6.1404    8.8162 O   0  0  0  0  0  0  0  0  0  0  0  0
   -3.0984    0.0156   16.0356 O   0  0  0  0  0  0  0  0  0  0  0  0
   -4.5761    5.4531    8.1726 S   0  0  0  0  0  0  0  0  0  0  0  0
   -2.9336    1.8080   17.0110 H   0  0  0  0  0  0  0  0  0  0  0  0
   -1.5590    1.4019   15.9455 H   0  0  0  0  0  0  0  0  0  0  0  0
   -4.7600    0.8785   13.7013 H   0  0  0  0  0  0  0  0  0  0  0  0
   -5.5433    1.8109   14.9801 H   0  0  0  0  0  0  0  0  0  0  0  0
   -3.5649    3.1154   15.1380 H   0  0  0  0  0  0  0  0  0  0  0  0
   -3.1526    4.0107   10.4845 H   0  0  0  0  0  0  0  0  0  0  0  0
   -4.1322    1.8494    9.7938 H   0  0  0  0  0  0  0  0  0  0  0  0
   -1.2360    4.3399    8.9095 H   0  0  0  0  0  0  0  0  0  0  0  0
   -0.4957    2.8673    9.4703 H   0  0  0  0  0  0  0  0  0  0  0  0
    1.1052    2.9722   11.1663 H   0  0  0  0  0  0  0  0  0  0  0  0
   -1.7961    6.1579   10.8882 H   0  0  0  0  0  0  0  0  0  0  0  0
    2.2127    4.1526   13.0237 H   0  0  0  0  0  0  0  0  0  0  0  0
   -0.6807    7.3158   12.7605 H   0  0  0  0  0  0  0  0  0  0  0  0
    1.3097    6.3118   13.8469 H   0  0  0  0  0  0  0  0  0  0  0  0
   -3.9945    2.1408    7.2277 H   0  0  0  0  0  0  0  0  0  0  0  0
   -2.8958    3.4440    7.4976 H   0  0  0  0  0  0  0  0  0  0  0  0
   -6.8972    4.0943    7.6298 H   0  0  0  0  0  0  0  0  0  0  0  0
   -6.0852    2.7561    6.8390 H   0  0  0  0  0  0  0  0  0  0  0  0
   -6.2007    1.4246    8.9369 H   0  0  0  0  0  0  0  0  0  0  0  0
   -2.5298    5.7423    6.1337 H   0  0  0  0  0  0  0  0  0  0  0  0
   -2.6896    6.4046    3.7717 H   0  0  0  0  0  0  0  0  0  0  0  0
   -6.9756    6.6390    4.0960 H   0  0  0  0  0  0  0  0  0  0  0  0
   -6.8339    6.0294    6.4748 H   0  0  0  0  0  0  0  0  0  0  0  0
   -7.5057    2.2488   10.8843 H   0  0  0  0  0  0  0  0  0  0  0  0
   -7.6734    3.8394   10.1257 H   0  0  0  0  0  0  0  0  0  0  0  0
   -6.0754    3.2549   10.6320 H   0  0  0  0  0  0  0  0  0  0  0  0
   -8.1398    1.3573    7.3448 H   0  0  0  0  0  0  0  0  0  0  0  0
   -8.9216    2.6607    8.2616 H   0  0  0  0  0  0  0  0  0  0  0  0
   -8.6310    1.0922    9.0250 H   0  0  0  0  0  0  0  0  0  0  0  0
   -4.7877   -0.8811   15.2279 H   0  0  0  0  0  0  0  0  0  0  0  0
   -5.0646    0.2189   16.5929 H   0  0  0  0  0  0  0  0  0  0  0  0
   -1.6220    1.6995   11.6015 H   0  0  0  0  0  0  0  0  0  0  0  0
   -4.0985    7.0425    1.8887 H   0  0  0  0  0  0  0  0  0  0  0  0
   -5.8277    7.1388    2.0278 H   0  0  0  0  0  0  0  0  0  0  0  0
   -1.7403    1.3252    8.3692 H   0  0  0  0  0  0  0  0  0  0  0  0
  1  4  1  0  0  0  0
  1 34  1  0  0  0  0
  1 36  1  0  0  0  0
  1 37  1  0  0  0  0
  2  4  1  0  0  0  0
  2 25  1  0  0  0  0
  2 38  1  0  0  0  0
  2 39  1  0  0  0  0
  3 26  1  0  0  0  0
  3 29  1  0  0  0  0
  3 30  2  0  0  0  0
  4 29  1  0  0  0  0
  4 40  1  1  0  0  0
  5  6  1  0  0  0  0
  5  7  1  0  0  0  0
  5 26  1  0  0  0  0
  5 41  1  1  0  0  0
  6 14  1  0  0  0  0
  6 31  1  0  0  0  0
  6 42  1  1  0  0  0
  7  8  1  0  0  0  0
  7 43  1  0  0  0  0
  7 44  1  0  0  0  0
  8  9  2  0  0  0  0
  8 10  1  0  0  0  0
  9 11  1  0  0  0  0
  9 45  1  0  0  0  0
 10 12  2  0  0  0  0
 10 46  1  0  0  0  0
 11 13  2  0  0  0  0
 11 47  1  0  0  0  0
 12 13  1  0  0  0  0
 12 48  1  0  0  0  0
 13 49  1  0  0  0  0
 14 27  1  0  0  0  0
 14 50  1  0  0  0  0
 14 51  1  0  0  0  0
 15 16  1  0  0  0  0
 15 27  1  0  0  0  0
 15 52  1  0  0  0  0
 15 53  1  0  0  0  0
 16 23  1  0  0  0  0
 16 24  1  0  0  0  0
 16 54  1  0  0  0  0
 17 18  2  0  0  0  0
 17 22  1  0  0  0  0
 17 35  1  0  0  0  0
 18 19  1  0  0  0  0
 18 55  1  0  0  0  0
 19 20  2  0  0  0  0
 19 56  1  0  0  0  0
 20 21  1  0  0  0  0
 20 28  1  0  0  0  0
 21 22  2  0  0  0  0
 21 57  1  0  0  0  0
 22 58  1  0  0  0  0
 23 59  1  0  0  0  0
 23 60  1  0  0  0  0
 23 61  1  0  0  0  0
 24 62  1  0  0  0  0
 24 63  1  0  0  0  0
 24 64  1  0  0  0  0
 25 34  1  0  0  0  0
 25 65  1  0  0  0  0
 25 66  1  0  0  0  0
 26 67  1  0  0  0  0
 27 35  1  0  0  0  0
 28 68  1  0  0  0  0
 28 69  1  0  0  0  0
 31 70  1  0  0  0  0
 32 35  2  0  0  0  0
 33 35  2  0  0  0  0
M  END
$$$$
