4CD
 OpenBabel04091913253D

 41 43  0  0  1  0  0  0  0  0999 V2000
   67.4892   78.9502   22.8165 N   0  0  0  0  0  0  0  0  0  0  0  0
   68.0013   79.8684   23.8620 C   0  0  1  0  0  0  0  0  0  0  0  0
   69.4651   79.6351   24.3057 C   0  0  0  0  0  0  0  0  0  0  0  0
   70.4058   79.0572   23.4236 C   0  0  0  0  0  0  0  0  0  0  0  0
   71.7417   78.8272   23.8071 C   0  0  0  0  0  0  0  0  0  0  0  0
   72.1670   79.1962   25.0867 C   0  0  0  0  0  0  0  0  0  0  0  0
   69.9232   80.0218   25.5987 C   0  0  0  0  0  0  0  0  0  0  0  0
   68.3048   76.4576   24.7492 C   0  0  0  0  0  0  0  0  0  0  0  0
   67.1903   75.5535   26.7145 C   0  0  0  0  0  0  0  0  0  0  0  0
   65.9093   76.6618   25.0048 C   0  0  0  0  0  0  0  0  0  0  0  0
   67.8407   81.2709   23.2313 C   0  0  0  0  0  0  0  0  0  0  0  0
   67.9387   81.0406   21.7287 C   0  0  0  0  0  0  0  0  0  0  0  0
   67.3792   79.6384   21.5257 C   0  0  0  0  0  0  0  0  0  0  0  0
   71.2700   79.7914   25.9715 C   0  0  0  0  0  0  0  0  0  0  0  0
   69.0393   80.6717   26.6397 C   0  0  0  0  0  0  0  0  0  0  0  0
   67.0723   76.9398   24.2714 C   0  0  0  0  0  0  0  0  0  0  0  0
   68.3679   75.7889   25.9821 C   0  0  0  0  0  0  0  0  0  0  0  0
   65.9617   75.9878   26.2348 C   0  0  0  0  0  0  0  0  0  0  0  0
   64.6770   77.0819   24.5624 O   0  0  0  0  0  0  0  0  0  0  0  0
   67.2535   74.9232   27.9385 O   0  0  0  0  0  0  0  0  0  0  0  0
   67.0009   77.6422   22.9415 C   0  0  0  0  0  0  0  0  0  0  0  0
   66.5279   77.0033   21.9824 O   0  0  0  0  0  0  0  0  0  0  0  0
   69.9078   75.2412   26.5619 Cl  0  0  0  0  0  0  0  0  0  0  0  0
   67.3409   79.7822   24.7306 H   0  0  0  0  0  0  0  0  0  0  0  0
   70.1078   78.7506   22.4202 H   0  0  0  0  0  0  0  0  0  0  0  0
   72.4422   78.3663   23.1194 H   0  0  0  0  0  0  0  0  0  0  0  0
   73.1985   79.0247   25.3832 H   0  0  0  0  0  0  0  0  0  0  0  0
   69.2174   76.6093   24.1783 H   0  0  0  0  0  0  0  0  0  0  0  0
   68.6006   81.9801   23.5713 H   0  0  0  0  0  0  0  0  0  0  0  0
   66.8524   81.6973   23.4629 H   0  0  0  0  0  0  0  0  0  0  0  0
   68.9852   81.0895   21.4025 H   0  0  0  0  0  0  0  0  0  0  0  0
   67.3763   81.7885   21.1557 H   0  0  0  0  0  0  0  0  0  0  0  0
   66.3321   79.6887   21.2006 H   0  0  0  0  0  0  0  0  0  0  0  0
   67.9528   79.0980   20.7647 H   0  0  0  0  0  0  0  0  0  0  0  0
   71.6233   80.0760   26.9658 H   0  0  0  0  0  0  0  0  0  0  0  0
   68.0241   80.8226   26.2760 H   0  0  0  0  0  0  0  0  0  0  0  0
   69.4285   81.6565   26.9230 H   0  0  0  0  0  0  0  0  0  0  0  0
   68.9784   80.0480   27.5394 H   0  0  0  0  0  0  0  0  0  0  0  0
   65.0568   75.8344   26.8127 H   0  0  0  0  0  0  0  0  0  0  0  0
   64.0964   76.3049   24.4971 H   0  0  0  0  0  0  0  0  0  0  0  0
   66.6989   74.1305   27.9030 H   0  0  0  0  0  0  0  0  0  0  0  0
  1  2  1  0  0  0  0
  1 13  1  0  0  0  0
  1 21  1  0  0  0  0
  2  3  1  0  0  0  0
  2 11  1  0  0  0  0
  2 24  1  1  0  0  0
  3  4  2  0  0  0  0
  3  7  1  0  0  0  0
  4  5  1  0  0  0  0
  4 25  1  0  0  0  0
  5  6  2  0  0  0  0
  5 26  1  0  0  0  0
  6 14  1  0  0  0  0
  6 27  1  0  0  0  0
  7 14  2  0  0  0  0
  7 15  1  0  0  0  0
  8 16  2  0  0  0  0
  8 17  1  0  0  0  0
  8 28  1  0  0  0  0
  9 17  2  0  0  0  0
  9 18  1  0  0  0  0
  9 20  1  0  0  0  0
 10 16  1  0  0  0  0
 10 18  2  0  0  0  0
 10 19  1  0  0  0  0
 11 12  1  0  0  0  0
 11 29  1  0  0  0  0
 11 30  1  0  0  0  0
 12 13  1  0  0  0  0
 12 31  1  0  0  0  0
 12 32  1  0  0  0  0
 13 33  1  0  0  0  0
 13 34  1  0  0  0  0
 14 35  1  0  0  0  0
 15 36  1  0  0  0  0
 15 37  1  0  0  0  0
 15 38  1  0  0  0  0
 16 21  1  0  0  0  0
 17 23  1  0  0  0  0
 18 39  1  0  0  0  0
 19 40  1  0  0  0  0
 20 41  1  0  0  0  0
 21 22  2  0  0  0  0
M  END
$$$$
