4HI
 OpenBabel04091911113D

 67 69  0  0  1  0  0  0  0  0999 V2000
  -14.1957    7.4744   45.5694 N   0  3  0  0  0  0  0  0  0  0  0  0
  -15.7512    8.5632   46.7349 N   0  0  0  0  0  0  0  0  0  0  0  0
  -19.2968    6.9504   48.5699 C   0  0  0  0  0  0  0  0  0  0  0  0
  -14.5602    8.6676   46.1754 C   0  0  0  0  0  0  0  0  0  0  0  0
  -15.3528    5.1891   45.2941 C   0  0  0  0  0  0  0  0  0  0  0  0
  -12.9730    7.2467   44.7900 C   0  0  0  0  0  0  0  0  0  0  0  0
  -13.1654    7.8028   43.3970 C   0  0  0  0  0  0  0  0  0  0  0  0
  -12.5540    8.0055   40.9928 C   0  0  0  0  0  0  0  0  0  0  0  0
  -14.3160    4.3683   46.0378 C   0  0  0  0  0  0  0  0  0  0  0  0
  -11.8216   11.1383   46.9345 C   0  0  0  0  0  0  0  0  0  0  0  0
  -20.6191    4.9629   49.3192 C   0  0  0  0  0  0  0  0  0  0  0  0
  -20.7337    3.7273   49.9522 C   0  0  0  0  0  0  0  0  0  0  0  0
  -14.3045   11.0690   45.6581 C   0  0  0  0  0  0  0  0  0  0  0  0
  -13.5891   12.2664   45.7270 C   0  0  0  0  0  0  0  0  0  0  0  0
  -18.2734    5.0369   49.8868 C   0  0  0  0  0  0  0  0  0  0  0  0
  -18.2053    6.0968   46.1022 O   0  0  0  0  0  0  0  0  0  0  0  0
  -17.5438    6.8124   46.8199 C   0  0  0  0  0  0  0  0  0  0  0  0
  -17.9818    7.2296   48.0686 N   0  0  0  0  0  0  0  0  0  0  0  0
  -19.3855    5.6210   49.2666 C   0  0  0  0  0  0  0  0  0  0  0  0
  -18.3874    3.8025   50.5194 C   0  0  0  0  0  0  0  0  0  0  0  0
  -19.6167    3.1488   50.5501 C   0  0  0  0  0  0  0  0  0  0  0  0
  -16.2130    7.3059   46.4598 C   0  0  0  0  0  0  0  0  0  0  0  0
  -15.2579    6.6068   45.7287 C   0  0  0  0  0  0  0  0  0  0  0  0
  -15.2957    5.0077   43.7912 C   0  0  0  0  0  0  0  0  0  0  0  0
  -13.7750    9.8963   46.2111 C   0  0  0  0  0  0  0  0  0  0  0  0
  -12.3515   12.2905   46.3619 C   0  0  0  0  0  0  0  0  0  0  0  0
  -11.6626   13.4377   46.4314 F   0  0  0  0  0  0  0  0  0  0  0  0
  -12.5383    9.9424   46.8659 C   0  0  0  0  0  0  0  0  0  0  0  0
  -12.0792    7.5149   42.3651 C   0  0  2  0  0  0  0  0  0  0  0  0
  -11.8342    6.1138   42.2216 O   0  0  0  0  0  0  0  0  0  0  0  0
  -12.6776    9.5291   40.8804 C   0  0  1  0  0  0  0  0  0  0  0  0
  -11.3909   10.0803   41.1687 O   0  0  0  0  0  0  0  0  0  0  0  0
  -13.1216    9.9033   39.4777 C   0  0  0  0  0  0  0  0  0  0  0  0
  -13.5958   11.3570   39.4568 C   0  0  0  0  0  0  0  0  0  0  0  0
  -12.8255   12.1644   38.8662 O   0  0  0  0  0  0  0  0  0  0  0  0
  -14.7259   11.5626   39.9871 O   0  0  0  0  0  0  0  0  0  0  0  0
  -20.0177    6.9877   47.7475 H   0  0  0  0  0  0  0  0  0  0  0  0
  -19.5437    7.7466   49.2844 H   0  0  0  0  0  0  0  0  0  0  0  0
  -16.3300    4.8044   45.6047 H   0  0  0  0  0  0  0  0  0  0  0  0
  -12.7624    6.1792   44.7566 H   0  0  0  0  0  0  0  0  0  0  0  0
  -12.1310    7.7109   45.3103 H   0  0  0  0  0  0  0  0  0  0  0  0
  -13.2658    8.8844   43.4974 H   0  0  0  0  0  0  0  0  0  0  0  0
  -14.1159    7.4204   43.0128 H   0  0  0  0  0  0  0  0  0  0  0  0
  -13.5294    7.5471   40.7767 H   0  0  0  0  0  0  0  0  0  0  0  0
  -11.8523    7.6361   40.2343 H   0  0  0  0  0  0  0  0  0  0  0  0
  -14.3717    3.3188   45.7499 H   0  0  0  0  0  0  0  0  0  0  0  0
  -14.4686    4.4549   47.1191 H   0  0  0  0  0  0  0  0  0  0  0  0
  -13.3065    4.7161   45.8322 H   0  0  0  0  0  0  0  0  0  0  0  0
  -10.8576   11.1725   47.4286 H   0  0  0  0  0  0  0  0  0  0  0  0
  -21.4907    5.4130   48.8503 H   0  0  0  0  0  0  0  0  0  0  0  0
  -21.6910    3.2195   49.9742 H   0  0  0  0  0  0  0  0  0  0  0  0
  -15.2778   11.0474   45.1690 H   0  0  0  0  0  0  0  0  0  0  0  0
  -13.9929   13.1677   45.2811 H   0  0  0  0  0  0  0  0  0  0  0  0
  -17.3090    5.5374   49.8609 H   0  0  0  0  0  0  0  0  0  0  0  0
  -17.3225    7.7379   48.6323 H   0  0  0  0  0  0  0  0  0  0  0  0
  -17.5170    3.3529   50.9854 H   0  0  0  0  0  0  0  0  0  0  0  0
  -19.7051    2.1855   51.0435 H   0  0  0  0  0  0  0  0  0  0  0  0
  -16.0657    5.6094   43.2957 H   0  0  0  0  0  0  0  0  0  0  0  0
  -15.4575    3.9578   43.5297 H   0  0  0  0  0  0  0  0  0  0  0  0
  -14.3239    5.2963   43.3941 H   0  0  0  0  0  0  0  0  0  0  0  0
  -12.1382    9.0493   47.3348 H   0  0  0  0  0  0  0  0  0  0  0  0
  -11.1444    8.0055   42.6525 H   0  0  0  0  0  0  0  0  0  0  0  0
  -11.4968    5.7606   43.0571 H   0  0  0  0  0  0  0  0  0  0  0  0
  -13.3872    9.9009   41.6248 H   0  0  0  0  0  0  0  0  0  0  0  0
  -10.7918    9.7963   40.4557 H   0  0  0  0  0  0  0  0  0  0  0  0
  -13.9516    9.2529   39.1681 H   0  0  0  0  0  0  0  0  0  0  0  0
  -12.2967    9.7647   38.7707 H   0  0  0  0  0  0  0  0  0  0  0  0
  1  4  2  0  0  0  0
  1  6  1  0  0  0  0
  1 23  1  0  0  0  0
  2  4  1  0  0  0  0
  2 22  1  0  0  0  0
  3 18  1  0  0  0  0
  3 19  1  0  0  0  0
  3 37  1  0  0  0  0
  3 38  1  0  0  0  0
  4 25  1  0  0  0  0
  5  9  1  0  0  0  0
  5 23  1  0  0  0  0
  5 24  1  0  0  0  0
  5 39  1  0  0  0  0
  6  7  1  0  0  0  0
  6 40  1  0  0  0  0
  6 41  1  0  0  0  0
  7 29  1  0  0  0  0
  7 42  1  0  0  0  0
  7 43  1  0  0  0  0
  8 29  1  0  0  0  0
  8 31  1  0  0  0  0
  8 44  1  0  0  0  0
  8 45  1  0  0  0  0
  9 46  1  0  0  0  0
  9 47  1  0  0  0  0
  9 48  1  0  0  0  0
 10 26  2  0  0  0  0
 10 28  1  0  0  0  0
 10 49  1  0  0  0  0
 11 12  2  0  0  0  0
 11 19  1  0  0  0  0
 11 50  1  0  0  0  0
 12 21  1  0  0  0  0
 12 51  1  0  0  0  0
 13 14  2  0  0  0  0
 13 25  1  0  0  0  0
 13 52  1  0  0  0  0
 14 26  1  0  0  0  0
 14 53  1  0  0  0  0
 15 19  2  0  0  0  0
 15 20  1  0  0  0  0
 15 54  1  0  0  0  0
 16 17  2  0  0  0  0
 17 18  1  0  0  0  0
 17 22  1  0  0  0  0
 18 55  1  0  0  0  0
 20 21  2  0  0  0  0
 20 56  1  0  0  0  0
 21 57  1  0  0  0  0
 22 23  2  0  0  0  0
 24 58  1  0  0  0  0
 24 59  1  0  0  0  0
 24 60  1  0  0  0  0
 25 28  2  0  0  0  0
 26 27  1  0  0  0  0
 28 61  1  0  0  0  0
 29 30  1  0  0  0  0
 29 62  1  1  0  0  0
 30 63  1  0  0  0  0
 31 32  1  0  0  0  0
 31 33  1  0  0  0  0
 31 64  1  1  0  0  0
 32 65  1  0  0  0  0
 33 34  1  0  0  0  0
 33 66  1  0  0  0  0
 33 67  1  0  0  0  0
 34 35  2  0  0  0  0
 34 36  1  0  0  0  0
M  CHG  1   1   1
M  END
$$$$
