54H
 OpenBabel04091911173D

 53 55  0  0  1  0  0  0  0  0999 V2000
   14.1036    9.9345   -2.7961 C   0  0  0  0  0  0  0  0  0  0  0  0
   15.1424   10.4490   -3.5522 C   0  0  0  0  0  0  0  0  0  0  0  0
   15.0152   10.3248   -4.9445 C   0  0  0  0  0  0  0  0  0  0  0  0
   15.6837   10.8046   -1.5071 C   0  0  0  0  0  0  0  0  0  0  0  0
   13.9039    9.7296   -5.4568 N   0  0  0  0  0  0  0  0  0  0  0  0
   12.9937    9.3305   -3.2546 N   0  0  0  0  0  0  0  0  0  0  0  0
   13.5513    8.3710    6.1474 C   0  0  0  0  0  0  0  0  0  0  0  0
   14.4636    8.9695    7.2071 C   0  0  0  0  0  0  0  0  0  0  0  0
   13.8561   10.2651    7.7392 C   0  0  0  0  0  0  0  0  0  0  0  0
   15.8964    9.2461    6.6813 C   0  0  1  0  0  0  0  0  0  0  0  0
   16.7127    7.9932    6.9352 N   0  3  0  0  0  0  0  0  0  0  0  0
   16.0382    9.6797    5.1845 C   0  0  0  0  0  0  0  0  0  0  0  0
   16.1709    8.7813    4.3271 O   0  0  0  0  0  0  0  0  0  0  0  0
   15.9118   10.9918    5.0503 N   0  0  0  0  0  0  0  0  0  0  0  0
   16.2378   11.6990    3.6648 S   0  0  0  0  0  0  0  0  0  0  0  0
   17.5197   11.3691    3.0686 O   0  0  0  0  0  0  0  0  0  0  0  0
   15.9251   13.1175    3.6937 O   0  0  0  0  0  0  0  0  0  0  0  0
   15.1698   11.1075    2.6036 O   0  0  0  0  0  0  0  0  0  0  0  0
   13.7769   11.2720    2.8100 C   0  0  0  0  0  0  0  0  0  0  0  0
   13.0580   10.3969    1.8029 C   0  0  1  0  0  0  0  0  0  0  0  0
   13.2675   10.8859    0.4524 O   0  0  0  0  0  0  0  0  0  0  0  0
   13.5999    8.9660    1.8653 C   0  0  1  0  0  0  0  0  0  0  0  0
   12.4878    8.0654    1.8073 O   0  0  0  0  0  0  0  0  0  0  0  0
   14.4519    8.8491    0.6078 C   0  0  1  0  0  0  0  0  0  0  0  0
   14.5742    7.5069    0.1433 O   0  0  0  0  0  0  0  0  0  0  0  0
   13.6800    9.7527   -0.3399 C   0  0  2  0  0  0  0  0  0  0  0  0
   14.4574   10.1790   -1.4899 N   0  3  0  0  0  0  0  0  0  0  0  0
   16.1284   10.9789   -2.7421 N   0  0  0  0  0  0  0  0  0  0  0  0
   12.9730    9.2799   -4.5982 C   0  0  0  0  0  0  0  0  0  0  0  0
   15.9793   10.7715   -5.8110 N   0  0  0  0  0  0  0  0  0  0  0  0
   16.2153   11.1043   -0.6072 H   0  0  0  0  0  0  0  0  0  0  0  0
   12.5386    8.2326    6.5397 H   0  0  0  0  0  0  0  0  0  0  0  0
   13.9343    7.4016    5.8187 H   0  0  0  0  0  0  0  0  0  0  0  0
   13.4846    9.0350    5.2817 H   0  0  0  0  0  0  0  0  0  0  0  0
   14.4956    8.2629    8.0530 H   0  0  0  0  0  0  0  0  0  0  0  0
   14.4974   10.6956    8.5164 H   0  0  0  0  0  0  0  0  0  0  0  0
   12.8692   10.0842    8.1778 H   0  0  0  0  0  0  0  0  0  0  0  0
   13.7469   10.9987    6.9357 H   0  0  0  0  0  0  0  0  0  0  0  0
   16.3643    9.9908    7.3289 H   0  0  0  0  0  0  0  0  0  0  0  0
   17.6646    8.1405    6.5752 H   0  0  0  0  0  0  0  0  0  0  0  0
   16.7689    7.7588    7.9297 H   0  0  0  0  0  0  0  0  0  0  0  0
   13.4831   12.3180    2.6941 H   0  0  0  0  0  0  0  0  0  0  0  0
   13.5420   10.9267    3.8192 H   0  0  0  0  0  0  0  0  0  0  0  0
   11.9776   10.4224    2.0089 H   0  0  0  0  0  0  0  0  0  0  0  0
   14.1618    8.7546    2.7804 H   0  0  0  0  0  0  0  0  0  0  0  0
   11.9024    8.2728    2.5536 H   0  0  0  0  0  0  0  0  0  0  0  0
   15.4553    9.2485    0.8013 H   0  0  0  0  0  0  0  0  0  0  0  0
   15.1053    7.5226   -0.6714 H   0  0  0  0  0  0  0  0  0  0  0  0
   12.7697    9.2493   -0.7018 H   0  0  0  0  0  0  0  0  0  0  0  0
   12.1052    8.8095   -5.0625 H   0  0  0  0  0  0  0  0  0  0  0  0
   15.8325   10.6527   -6.7976 H   0  0  0  0  0  0  0  0  0  0  0  0
   16.8011   11.2096   -5.4193 H   0  0  0  0  0  0  0  0  0  0  0  0
   16.3306    7.1949    6.4119 H   0  0  0  0  0  0  0  0  0  0  0  0
  1  2  2  0  0  0  0
  1  6  1  0  0  0  0
  1 27  1  0  0  0  0
  2  3  1  0  0  0  0
  2 28  1  0  0  0  0
  3  5  2  0  0  0  0
  3 30  1  0  0  0  0
  4 27  2  0  0  0  0
  4 28  1  0  0  0  0
  4 31  1  0  0  0  0
  5 29  1  0  0  0  0
  6 29  2  0  0  0  0
  7  8  1  0  0  0  0
  7 32  1  0  0  0  0
  7 33  1  0  0  0  0
  7 34  1  0  0  0  0
  8  9  1  0  0  0  0
  8 10  1  0  0  0  0
  8 35  1  0  0  0  0
  9 36  1  0  0  0  0
  9 37  1  0  0  0  0
  9 38  1  0  0  0  0
 10 11  1  0  0  0  0
 10 12  1  0  0  0  0
 10 39  1  1  0  0  0
 11 40  1  0  0  0  0
 11 41  1  0  0  0  0
 11 53  1  0  0  0  0
 12 13  2  0  0  0  0
 12 14  1  0  0  0  0
 14 15  1  0  0  0  0
 15 16  2  0  0  0  0
 15 17  2  0  0  0  0
 15 18  1  0  0  0  0
 18 19  1  0  0  0  0
 19 20  1  0  0  0  0
 19 42  1  0  0  0  0
 19 43  1  0  0  0  0
 20 21  1  0  0  0  0
 20 22  1  0  0  0  0
 20 44  1  1  0  0  0
 21 26  1  0  0  0  0
 22 23  1  0  0  0  0
 22 24  1  0  0  0  0
 22 45  1  1  0  0  0
 23 46  1  0  0  0  0
 24 25  1  0  0  0  0
 24 26  1  0  0  0  0
 24 47  1  1  0  0  0
 25 48  1  0  0  0  0
 26 27  1  0  0  0  0
 26 49  1  6  0  0  0
 29 50  1  0  0  0  0
 30 51  1  0  0  0  0
 30 52  1  0  0  0  0
M  CHG  2  11   1  27   1
M  END
$$$$
