5FU
 OpenBabel04091912383D

 32 33  0  0  1  0  0  0  0  0999 V2000
    8.9573    6.2237   -0.0268 F   0  0  0  0  0  0  0  0  0  0  0  0
    8.6861    5.3517    0.9584 C   0  0  0  0  0  0  0  0  0  0  0  0
    7.4691    5.5766    1.7521 C   0  0  0  0  0  0  0  0  0  0  0  0
    6.7016    6.5161    1.5420 O   0  0  0  0  0  0  0  0  0  0  0  0
    7.2757    4.6707    2.7601 N   0  3  0  0  0  0  0  0  0  0  0  0
    8.0232    3.5514    3.0038 C   0  0  0  0  0  0  0  0  0  0  0  0
    7.6923    2.8198    3.9214 O   0  0  0  0  0  0  0  0  0  0  0  0
    9.4683    4.3076    1.2258 C   0  0  0  0  0  0  0  0  0  0  0  0
    9.1408    3.3725    2.1863 N   0  3  0  0  0  0  0  0  0  0  0  0
    9.9167    2.1193    2.2654 C   0  0  2  0  0  0  0  0  0  0  0  0
    9.0653    1.0083    1.9576 O   0  0  0  0  0  0  0  0  0  0  0  0
   10.6085    1.8479    3.6056 C   0  0  2  0  0  0  0  0  0  0  0  0
   11.9183    2.4404    3.6831 O   0  0  0  0  0  0  0  0  0  0  0  0
   10.6766    0.3294    3.6039 C   0  0  2  0  0  0  0  0  0  0  0  0
   11.8130   -0.0820    2.8083 O   0  0  0  0  0  0  0  0  0  0  0  0
    9.3713   -0.0619    2.9014 C   0  0  1  0  0  0  0  0  0  0  0  0
    8.2221   -0.2735    3.8952 C   0  0  0  0  0  0  0  0  0  0  0  0
    8.5298   -1.4396    4.6255 O   0  0  0  0  0  0  0  0  0  0  0  0
    7.4986   -1.9697    5.7758 P   0  0  0  0  0  0  0  0  0  0  0  0
    8.4253   -2.7597    6.6890 O   0  0  0  0  0  0  0  0  0  0  0  0
    6.9251   -0.7077    6.4030 O   0  0  0  0  0  0  0  0  0  0  0  0
    6.4935   -2.8092    5.0040 O   0  0  0  0  0  0  0  0  0  0  0  0
    6.4511    4.7828    3.3420 H   0  0  0  0  0  0  0  0  0  0  0  0
   10.3933    4.1554    0.6660 H   0  0  0  0  0  0  0  0  0  0  0  0
   10.6785    2.1524    1.4745 H   0  0  0  0  0  0  0  0  0  0  0  0
   10.0190    2.2048    4.4525 H   0  0  0  0  0  0  0  0  0  0  0  0
   11.7829    3.4020    3.6522 H   0  0  0  0  0  0  0  0  0  0  0  0
   10.7977   -0.0893    4.6075 H   0  0  0  0  0  0  0  0  0  0  0  0
   12.5845    0.2796    3.2813 H   0  0  0  0  0  0  0  0  0  0  0  0
    9.5271   -0.9824    2.3253 H   0  0  0  0  0  0  0  0  0  0  0  0
    7.2714   -0.3673    3.3595 H   0  0  0  0  0  0  0  0  0  0  0  0
    8.1485    0.5757    4.5783 H   0  0  0  0  0  0  0  0  0  0  0  0
  1  2  1  0  0  0  0
  2  3  1  0  0  0  0
  2  8  2  0  0  0  0
  3  4  2  0  0  0  0
  3  5  1  0  0  0  0
  5  6  1  0  0  0  0
  5 23  1  0  0  0  0
  6  7  2  0  0  0  0
  6  9  1  0  0  0  0
  8  9  1  0  0  0  0
  8 24  1  0  0  0  0
  9 10  1  0  0  0  0
 10 11  1  0  0  0  0
 10 12  1  0  0  0  0
 10 25  1  6  0  0  0
 11 16  1  0  0  0  0
 12 13  1  0  0  0  0
 12 14  1  0  0  0  0
 12 26  1  1  0  0  0
 13 27  1  0  0  0  0
 14 15  1  0  0  0  0
 14 16  1  0  0  0  0
 14 28  1  1  0  0  0
 15 29  1  0  0  0  0
 16 17  1  0  0  0  0
 16 30  1  6  0  0  0
 17 18  1  0  0  0  0
 17 31  1  0  0  0  0
 17 32  1  0  0  0  0
 18 19  1  0  0  0  0
 19 20  2  0  0  0  0
 19 21  1  0  0  0  0
 19 22  1  0  0  0  0
M  CHG  2   5   1   9   1
M  END
$$$$
