5LI
 OpenBabel04091915243D

 27 27  0  0  0  0  0  0  0  0999 V2000
   25.1315   -6.8918    8.6960 C   0  0  0  0  0  0  0  0  0  0  0  0
   25.5125   -6.5992    7.3938 C   0  0  0  0  0  0  0  0  0  0  0  0
   25.2810   -5.9293    9.6896 C   0  0  0  0  0  0  0  0  0  0  0  0
   26.0478   -5.3398    7.0950 C   0  0  0  0  0  0  0  0  0  0  0  0
   25.8144   -4.6648    9.3866 C   0  0  0  0  0  0  0  0  0  0  0  0
   26.2018   -4.3610    8.0771 C   0  0  0  0  0  0  0  0  0  0  0  0
   29.5155   -2.1757    4.8893 C   0  0  0  0  0  0  0  0  0  0  0  0
   26.4139   -5.1035    5.6987 C   0  0  0  0  0  0  0  0  0  0  0  0
   28.1212   -5.4406    3.9776 C   0  0  0  0  0  0  0  0  0  0  0  0
   28.3207   -3.9769    3.5871 C   0  0  0  0  0  0  0  0  0  0  0  0
   27.6457   -5.5942    5.3404 N   0  0  0  0  0  0  0  0  0  0  0  0
   29.4517   -3.3989    4.2891 N   0  0  0  0  0  0  0  0  0  0  0  0
   30.5399   -1.7309    5.4080 O   0  0  0  0  0  0  0  0  0  0  0  0
   25.6317   -4.5456    4.9444 O   0  0  0  0  0  0  0  0  0  0  0  0
   30.6518   -4.1384    4.1869 O   0  0  0  0  0  0  0  0  0  0  0  0
   25.9728   -3.5462   10.6914 Cl  0  0  0  0  0  0  0  0  0  0  0  0
   26.8869   -2.8154    7.6824 Cl  0  0  0  0  0  0  0  0  0  0  0  0
   24.7126   -7.8663    8.9343 H   0  0  0  0  0  0  0  0  0  0  0  0
   25.3924   -7.3431    6.6051 H   0  0  0  0  0  0  0  0  0  0  0  0
   24.9780   -6.1644   10.7092 H   0  0  0  0  0  0  0  0  0  0  0  0
   28.5636   -1.6286    4.8737 H   0  0  0  0  0  0  0  0  0  0  0  0
   29.0574   -6.0079    3.8941 H   0  0  0  0  0  0  0  0  0  0  0  0
   27.3832   -5.9070    3.3169 H   0  0  0  0  0  0  0  0  0  0  0  0
   27.4413   -3.3696    3.8117 H   0  0  0  0  0  0  0  0  0  0  0  0
   28.5030   -3.8964    2.5054 H   0  0  0  0  0  0  0  0  0  0  0  0
   28.2674   -6.0019    6.0303 H   0  0  0  0  0  0  0  0  0  0  0  0
   31.2761   -3.5910    4.7110 H   0  0  0  0  0  0  0  0  0  0  0  0
  1  2  2  0  0  0  0
  1  3  1  0  0  0  0
  1 18  1  0  0  0  0
  2  4  1  0  0  0  0
  2 19  1  0  0  0  0
  3  5  2  0  0  0  0
  3 20  1  0  0  0  0
  4  6  2  0  0  0  0
  4  8  1  0  0  0  0
  5  6  1  0  0  0  0
  5 16  1  0  0  0  0
  6 17  1  0  0  0  0
  7 12  1  0  0  0  0
  7 13  2  0  0  0  0
  7 21  1  0  0  0  0
  8 11  1  0  0  0  0
  8 14  2  0  0  0  0
  9 10  1  0  0  0  0
  9 11  1  0  0  0  0
  9 22  1  0  0  0  0
  9 23  1  0  0  0  0
 10 12  1  0  0  0  0
 10 24  1  0  0  0  0
 10 25  1  0  0  0  0
 11 26  1  0  0  0  0
 12 15  1  0  0  0  0
 15 27  1  0  0  0  0
M  END
$$$$
