5NS
 OpenBabel04091911133D

 23 24  0  0  0  0  0  0  0  0999 V2000
  -22.5063    1.7394  -27.0453 C   0  0  0  0  0  0  0  0  0  0  0  0
  -22.9421    2.1183  -25.7849 C   0  0  0  0  0  0  0  0  0  0  0  0
  -22.5978    1.3281  -24.7023 C   0  0  0  0  0  0  0  0  0  0  0  0
  -21.8179    0.1594  -24.8486 C   0  0  0  0  0  0  0  0  0  0  0  0
  -21.3702   -0.2294  -26.1344 C   0  0  0  0  0  0  0  0  0  0  0  0
  -21.7316    0.5874  -27.2229 C   0  0  0  0  0  0  0  0  0  0  0  0
  -20.2511   -2.1717  -25.1453 C   0  0  0  0  0  0  0  0  0  0  0  0
  -20.5952   -1.4130  -26.2247 C   0  0  0  0  0  0  0  0  0  0  0  0
  -20.7715    1.5417  -29.3938 O   0  0  0  0  0  0  0  0  0  0  0  0
  -21.2294    0.2323  -28.9449 S   0  0  0  0  0  0  0  0  0  0  0  0
  -22.4907   -0.2431  -29.5045 O   0  0  0  0  0  0  0  0  0  0  0  0
  -20.1647   -0.7626  -28.9015 O   0  0  0  0  0  0  0  0  0  0  0  0
  -20.6980   -1.7860  -23.8881 C   0  0  0  0  0  0  0  0  0  0  0  0
  -21.4764   -0.6331  -23.7202 C   0  0  0  0  0  0  0  0  0  0  0  0
  -21.8924   -0.3093  -22.4419 N   0  0  0  0  0  0  0  0  0  0  0  0
  -22.7721    2.3508  -27.9155 H   0  0  0  0  0  0  0  0  0  0  0  0
  -23.5405    3.0105  -25.6443 H   0  0  0  0  0  0  0  0  0  0  0  0
  -22.9460    1.6300  -23.7274 H   0  0  0  0  0  0  0  0  0  0  0  0
  -19.6504   -3.0596  -25.2897 H   0  0  0  0  0  0  0  0  0  0  0  0
  -20.2387   -1.7610  -27.1827 H   0  0  0  0  0  0  0  0  0  0  0  0
  -20.4303   -2.3888  -23.0379 H   0  0  0  0  0  0  0  0  0  0  0  0
  -22.4522    0.5069  -22.2801 H   0  0  0  0  0  0  0  0  0  0  0  0
  -21.6380   -0.8947  -21.6662 H   0  0  0  0  0  0  0  0  0  0  0  0
  1  2  2  0  0  0  0
  1  6  1  0  0  0  0
  1 16  1  0  0  0  0
  2  3  1  0  0  0  0
  2 17  1  0  0  0  0
  3  4  2  0  0  0  0
  3 18  1  0  0  0  0
  4  5  1  0  0  0  0
  4 14  1  0  0  0  0
  5  6  2  0  0  0  0
  5  8  1  0  0  0  0
  6 10  1  0  0  0  0
  7  8  2  0  0  0  0
  7 13  1  0  0  0  0
  7 19  1  0  0  0  0
  8 20  1  0  0  0  0
  9 10  2  0  0  0  0
 10 11  2  0  0  0  0
 10 12  1  0  0  0  0
 13 14  2  0  0  0  0
 13 21  1  0  0  0  0
 14 15  1  0  0  0  0
 15 22  1  0  0  0  0
 15 23  1  0  0  0  0
M  END
$$$$
