5UM
 OpenBabel04091914563D

 31 32  0  0  0  0  0  0  0  0999 V2000
   15.9856    2.0277   15.8000 C   0  0  0  0  0  0  0  0  0  0  0  0
   14.8865    5.1584   14.3449 F   0  0  0  0  0  0  0  0  0  0  0  0
   15.8010   -0.6845   16.0989 N   0  0  0  0  0  0  0  0  0  0  0  0
   15.8840    0.8202   18.0954 O   0  0  0  0  0  0  0  0  0  0  0  0
   15.2794    0.7339   16.7972 S   0  0  0  0  0  0  0  0  0  0  0  0
   15.1619    3.0850   15.4164 C   0  0  0  0  0  0  0  0  0  0  0  0
   13.8347    0.7597   16.6138 O   0  0  0  0  0  0  0  0  0  0  0  0
   15.6939    4.1390   14.6763 C   0  0  0  0  0  0  0  0  0  0  0  0
   17.0440    4.1733   14.3075 C   0  0  0  0  0  0  0  0  0  0  0  0
   17.8594    3.1077   14.6957 C   0  0  0  0  0  0  0  0  0  0  0  0
   17.3401    2.0332   15.4461 C   0  0  0  0  0  0  0  0  0  0  0  0
   17.5218    5.2676   13.5421 N   0  0  0  0  0  0  0  0  0  0  0  0
   18.8560    5.6688   13.4985 C   0  0  0  0  0  0  0  0  0  0  0  0
   19.7748    5.0873   14.0682 O   0  0  0  0  0  0  0  0  0  0  0  0
   19.1306    6.9015   12.6620 C   0  0  0  0  0  0  0  0  0  0  0  0
   20.0829    7.8482   13.3478 C   0  0  0  0  0  0  0  0  0  0  0  0
   21.2957    8.3009   12.8464 C   0  0  0  0  0  0  0  0  0  0  0  0
   21.9448    9.2049   13.7226 C   0  0  0  0  0  0  0  0  0  0  0  0
   21.2344    9.4378   14.8764 C   0  0  0  0  0  0  0  0  0  0  0  0
   19.7645    8.5470   14.8860 S   0  0  0  0  0  0  0  0  0  0  0  0
   15.5353   -1.5466   16.5708 H   0  0  0  0  0  0  0  0  0  0  0  0
   16.4682   -0.6999   15.3380 H   0  0  0  0  0  0  0  0  0  0  0  0
   14.1141    3.1015   15.7058 H   0  0  0  0  0  0  0  0  0  0  0  0
   18.9067    3.0780   14.4100 H   0  0  0  0  0  0  0  0  0  0  0  0
   18.0124    1.2341   15.7464 H   0  0  0  0  0  0  0  0  0  0  0  0
   16.8089    5.8460   13.1082 H   0  0  0  0  0  0  0  0  0  0  0  0
   18.2060    7.4130   12.3967 H   0  0  0  0  0  0  0  0  0  0  0  0
   19.5961    6.5363   11.7337 H   0  0  0  0  0  0  0  0  0  0  0  0
   21.6950    7.9912   11.8929 H   0  0  0  0  0  0  0  0  0  0  0  0
   22.9006    9.6633   13.5042 H   0  0  0  0  0  0  0  0  0  0  0  0
   21.5202   10.0875   15.6966 H   0  0  0  0  0  0  0  0  0  0  0  0
  1  5  1  0  0  0  0
  1  6  2  0  0  0  0
  1 11  1  0  0  0  0
  2  8  1  0  0  0  0
  3  5  1  0  0  0  0
  3 21  1  0  0  0  0
  3 22  1  0  0  0  0
  4  5  2  0  0  0  0
  5  7  2  0  0  0  0
  6  8  1  0  0  0  0
  6 23  1  0  0  0  0
  8  9  2  0  0  0  0
  9 10  1  0  0  0  0
  9 12  1  0  0  0  0
 10 11  2  0  0  0  0
 10 24  1  0  0  0  0
 11 25  1  0  0  0  0
 12 13  1  0  0  0  0
 12 26  1  0  0  0  0
 13 14  2  0  0  0  0
 13 15  1  0  0  0  0
 15 16  1  0  0  0  0
 15 27  1  0  0  0  0
 15 28  1  0  0  0  0
 16 17  2  0  0  0  0
 16 20  1  0  0  0  0
 17 18  1  0  0  0  0
 17 29  1  0  0  0  0
 18 19  2  0  0  0  0
 18 30  1  0  0  0  0
 19 20  1  0  0  0  0
 19 31  1  0  0  0  0
M  END
$$$$
