610
 OpenBabel04091914183D

 50 53  0  0  1  0  0  0  0  0999 V2000
   20.3347  -30.8189   13.3072 C   0  0  1  0  0  0  0  0  0  0  0  0
   19.0256  -31.6084   13.4114 C   0  0  2  0  0  0  0  0  0  0  0  0
   17.9572  -30.5148   13.3499 C   0  0  1  0  0  0  0  0  0  0  0  0
   18.5343  -29.4463   12.5709 O   0  0  0  0  0  0  0  0  0  0  0  0
   19.9298  -29.7272   12.3160 C   0  0  2  0  0  0  0  0  0  0  0  0
   20.0928  -30.2183   10.9120 C   0  0  0  0  0  0  0  0  0  0  0  0
   16.7119  -30.9154   12.7210 N   0  3  0  0  0  0  0  0  0  0  0  0
   20.6840  -30.2544   14.5742 O   0  0  0  0  0  0  0  0  0  0  0  0
   18.9164  -32.4132   14.5737 O   0  0  0  0  0  0  0  0  0  0  0  0
   20.6135  -29.4604    9.9374 C   0  0  0  0  0  0  0  0  0  0  0  0
   16.5815  -31.4765   11.4708 C   0  0  0  0  0  0  0  0  0  0  0  0
   15.3192  -31.6052   11.1155 N   0  0  0  0  0  0  0  0  0  0  0  0
   20.8224  -29.9866    8.5590 C   0  0  0  0  0  0  0  0  0  0  0  0
   21.8324  -29.2242    7.9050 N   0  0  0  0  0  0  0  0  0  0  0  0
   22.6090  -29.7285    6.8713 C   0  0  0  0  0  0  0  0  0  0  0  0
   23.6444  -28.8281    6.2828 C   0  0  0  0  0  0  0  0  0  0  0  0
   23.6684  -27.4176    6.4798 C   0  0  0  0  0  0  0  0  0  0  0  0
   24.7514  -26.7448    5.8556 C   0  0  0  0  0  0  0  0  0  0  0  0
   25.7238  -27.3518    5.0746 C   0  0  0  0  0  0  0  0  0  0  0  0
   25.6542  -28.7291    4.9217 C   0  0  0  0  0  0  0  0  0  0  0  0
   24.6347  -29.4775    5.5215 C   0  0  0  0  0  0  0  0  0  0  0  0
   26.6425  -29.4097    4.1148 N   0  0  0  0  0  0  0  0  0  0  0  0
   22.8038  -26.7496    7.1572 O   0  0  0  0  0  0  0  0  0  0  0  0
   24.8453  -25.3782    6.0388 O   0  0  0  0  0  0  0  0  0  0  0  0
   22.5127  -30.8892    6.5061 O   0  0  0  0  0  0  0  0  0  0  0  0
   27.4646  -28.7464    3.4625 O   0  0  0  0  0  0  0  0  0  0  0  0
   26.6481  -30.6619    4.1308 O   0  0  0  0  0  0  0  0  0  0  0  0
   15.4392  -30.6922   13.2013 C   0  0  0  0  0  0  0  0  0  0  0  0
   14.6029  -31.1159   12.1770 C   0  0  0  0  0  0  0  0  0  0  0  0
   13.2332  -30.9876   12.3919 C   0  0  0  0  0  0  0  0  0  0  0  0
   12.7793  -30.4491   13.5533 N   0  0  0  0  0  0  0  0  0  0  0  0
   13.7034  -30.0644   14.4628 C   0  0  0  0  0  0  0  0  0  0  0  0
   15.0536  -30.1565   14.3803 N   0  0  0  0  0  0  0  0  0  0  0  0
   21.1812  -31.4297   12.9625 H   0  0  0  0  0  0  0  0  0  0  0  0
   18.9516  -32.2616   12.5381 H   0  0  0  0  0  0  0  0  0  0  0  0
   17.7319  -30.1477   14.3661 H   0  0  0  0  0  0  0  0  0  0  0  0
   20.4855  -28.7906   12.4585 H   0  0  0  0  0  0  0  0  0  0  0  0
   19.8313  -31.2494   10.6853 H   0  0  0  0  0  0  0  0  0  0  0  0
   19.9252  -29.7410   14.8948 H   0  0  0  0  0  0  0  0  0  0  0  0
   19.0038  -31.8370   15.3537 H   0  0  0  0  0  0  0  0  0  0  0  0
   20.8815  -28.4316   10.1588 H   0  0  0  0  0  0  0  0  0  0  0  0
   17.4156  -31.7700   10.8430 H   0  0  0  0  0  0  0  0  0  0  0  0
   19.8871  -29.9172    7.9914 H   0  0  0  0  0  0  0  0  0  0  0  0
   21.1492  -31.0337    8.5951 H   0  0  0  0  0  0  0  0  0  0  0  0
   21.9319  -28.2006    8.0247 H   0  0  0  0  0  0  0  0  0  0  0  0
   26.4910  -26.7453    4.6040 H   0  0  0  0  0  0  0  0  0  0  0  0
   24.6059  -30.5617    5.3903 H   0  0  0  0  0  0  0  0  0  0  0  0
   24.0590  -25.2156    6.6140 H   0  0  0  0  0  0  0  0  0  0  0  0
   12.5039  -31.3024   11.6572 H   0  0  0  0  0  0  0  0  0  0  0  0
   13.3088  -29.6270   15.3801 H   0  0  0  0  0  0  0  0  0  0  0  0
  1  2  1  0  0  0  0
  1  5  1  0  0  0  0
  1  8  1  0  0  0  0
  1 34  1  6  0  0  0
  2  3  1  0  0  0  0
  2  9  1  0  0  0  0
  2 35  1  6  0  0  0
  3  4  1  0  0  0  0
  3  7  1  0  0  0  0
  3 36  1  1  0  0  0
  4  5  1  0  0  0  0
  5  6  1  0  0  0  0
  5 37  1  1  0  0  0
  6 10  2  0  0  0  0
  6 38  1  0  0  0  0
  7 11  2  0  0  0  0
  7 28  1  0  0  0  0
  8 39  1  0  0  0  0
  9 40  1  0  0  0  0
 10 13  1  0  0  0  0
 10 41  1  0  0  0  0
 11 12  1  0  0  0  0
 11 42  1  0  0  0  0
 12 29  1  0  0  0  0
 13 14  1  0  0  0  0
 13 43  1  0  0  0  0
 13 44  1  0  0  0  0
 14 15  1  0  0  0  0
 14 45  1  0  0  0  0
 15 16  1  0  0  0  0
 15 25  2  0  0  0  0
 16 17  2  0  0  0  0
 16 21  1  0  0  0  0
 17 18  1  0  0  0  0
 17 23  1  0  0  0  0
 18 19  2  0  0  0  0
 18 24  1  0  0  0  0
 19 20  1  0  0  0  0
 19 46  1  0  0  0  0
 20 21  2  0  0  0  0
 20 22  1  0  0  0  0
 21 47  1  0  0  0  0
 22 26  2  0  0  0  0
 22 27  2  0  0  0  0
 24 48  1  0  0  0  0
 28 29  2  0  0  0  0
 28 33  1  0  0  0  0
 29 30  1  0  0  0  0
 30 31  2  0  0  0  0
 30 49  1  0  0  0  0
 31 32  1  0  0  0  0
 32 33  2  0  0  0  0
 32 50  1  0  0  0  0
M  CHG  1   7   1
M  END
$$$$
