611
 OpenBabel04091914183D

 49 51  0  0  1  0  0  0  0  0999 V2000
   20.4263  -30.3377   13.3245 C   0  0  1  0  0  0  0  0  0  0  0  0
   19.3914  -31.4568   13.3590 C   0  0  2  0  0  0  0  0  0  0  0  0
   18.0726  -30.6883   13.1910 C   0  0  1  0  0  0  0  0  0  0  0  0
   18.3917  -29.4037   12.6196 O   0  0  0  0  0  0  0  0  0  0  0  0
   19.7947  -29.4275   12.2752 C   0  0  2  0  0  0  0  0  0  0  0  0
   19.9145  -29.9916   10.8968 C   0  0  0  0  0  0  0  0  0  0  0  0
   16.9488  -31.6605   12.1243 S   0  0  0  0  0  0  0  0  0  0  0  0
   20.4904  -29.6713   14.5964 O   0  0  0  0  0  0  0  0  0  0  0  0
   19.4087  -32.2380   14.5462 O   0  0  0  0  0  0  0  0  0  0  0  0
   20.7032  -29.4152    9.9641 C   0  0  0  0  0  0  0  0  0  0  0  0
   15.3349  -31.1236   12.6209 C   0  0  0  0  0  0  0  0  0  0  0  0
   20.8479  -29.9841    8.6071 C   0  0  0  0  0  0  0  0  0  0  0  0
   21.8245  -29.2172    7.9085 N   0  0  0  0  0  0  0  0  0  0  0  0
   22.6122  -29.7288    6.9135 C   0  0  0  0  0  0  0  0  0  0  0  0
   23.6546  -28.8022    6.3138 C   0  0  0  0  0  0  0  0  0  0  0  0
   23.6759  -27.3880    6.5202 C   0  0  0  0  0  0  0  0  0  0  0  0
   24.7565  -26.7136    5.8950 C   0  0  0  0  0  0  0  0  0  0  0  0
   25.7384  -27.3165    5.1246 C   0  0  0  0  0  0  0  0  0  0  0  0
   25.6729  -28.6916    4.9565 C   0  0  0  0  0  0  0  0  0  0  0  0
   24.6478  -29.4411    5.5448 C   0  0  0  0  0  0  0  0  0  0  0  0
   26.6905  -29.3722    4.1556 N   0  0  0  0  0  0  0  0  0  0  0  0
   22.8163  -26.7237    7.2016 O   0  0  0  0  0  0  0  0  0  0  0  0
   24.8438  -25.3452    6.0694 O   0  0  0  0  0  0  0  0  0  0  0  0
   22.5240  -30.9011    6.5463 O   0  0  0  0  0  0  0  0  0  0  0  0
   27.5037  -28.6819    3.5221 O   0  0  0  0  0  0  0  0  0  0  0  0
   26.6857  -30.6111    4.1442 O   0  0  0  0  0  0  0  0  0  0  0  0
   14.2419  -31.8647   12.1726 C   0  0  0  0  0  0  0  0  0  0  0  0
   12.9758  -31.4747   12.5676 C   0  0  0  0  0  0  0  0  0  0  0  0
   12.7324  -30.4049   13.3565 N   0  0  0  0  0  0  0  0  0  0  0  0
   13.8064  -29.6953   13.7599 C   0  0  0  0  0  0  0  0  0  0  0  0
   15.1069  -30.0142   13.4251 C   0  0  0  0  0  0  0  0  0  0  0  0
   21.4363  -30.6793   13.0678 H   0  0  0  0  0  0  0  0  0  0  0  0
   19.5625  -32.1310   12.5126 H   0  0  0  0  0  0  0  0  0  0  0  0
   17.6274  -30.5207   14.1776 H   0  0  0  0  0  0  0  0  0  0  0  0
   20.1838  -28.4030   12.3181 H   0  0  0  0  0  0  0  0  0  0  0  0
   19.3756  -30.9000   10.6368 H   0  0  0  0  0  0  0  0  0  0  0  0
   19.5939  -29.3628   14.8121 H   0  0  0  0  0  0  0  0  0  0  0  0
   19.3160  -31.6290   15.2986 H   0  0  0  0  0  0  0  0  0  0  0  0
   21.2492  -28.5224   10.2465 H   0  0  0  0  0  0  0  0  0  0  0  0
   19.8879  -29.9395    8.0852 H   0  0  0  0  0  0  0  0  0  0  0  0
   21.1783  -31.0280    8.6723 H   0  0  0  0  0  0  0  0  0  0  0  0
   21.8855  -28.1924    8.0155 H   0  0  0  0  0  0  0  0  0  0  0  0
   26.5148  -26.7014    4.6786 H   0  0  0  0  0  0  0  0  0  0  0  0
   24.6216  -30.5244    5.4100 H   0  0  0  0  0  0  0  0  0  0  0  0
   24.0539  -25.1790    6.6385 H   0  0  0  0  0  0  0  0  0  0  0  0
   14.3626  -32.7332   11.5313 H   0  0  0  0  0  0  0  0  0  0  0  0
   12.1044  -32.0397   12.2479 H   0  0  0  0  0  0  0  0  0  0  0  0
   13.6112  -28.8280   14.3839 H   0  0  0  0  0  0  0  0  0  0  0  0
   15.9047  -29.3836   13.7921 H   0  0  0  0  0  0  0  0  0  0  0  0
  1  2  1  0  0  0  0
  1  5  1  0  0  0  0
  1  8  1  0  0  0  0
  1 32  1  6  0  0  0
  2  3  1  0  0  0  0
  2  9  1  0  0  0  0
  2 33  1  6  0  0  0
  3  4  1  0  0  0  0
  3  7  1  0  0  0  0
  3 34  1  1  0  0  0
  4  5  1  0  0  0  0
  5  6  1  0  0  0  0
  5 35  1  1  0  0  0
  6 10  2  0  0  0  0
  6 36  1  0  0  0  0
  7 11  1  0  0  0  0
  8 37  1  0  0  0  0
  9 38  1  0  0  0  0
 10 12  1  0  0  0  0
 10 39  1  0  0  0  0
 11 27  2  0  0  0  0
 11 31  1  0  0  0  0
 12 13  1  0  0  0  0
 12 40  1  0  0  0  0
 12 41  1  0  0  0  0
 13 14  1  0  0  0  0
 13 42  1  0  0  0  0
 14 15  1  0  0  0  0
 14 24  2  0  0  0  0
 15 16  2  0  0  0  0
 15 20  1  0  0  0  0
 16 17  1  0  0  0  0
 16 22  1  0  0  0  0
 17 18  2  0  0  0  0
 17 23  1  0  0  0  0
 18 19  1  0  0  0  0
 18 43  1  0  0  0  0
 19 20  2  0  0  0  0
 19 21  1  0  0  0  0
 20 44  1  0  0  0  0
 21 25  2  0  0  0  0
 21 26  2  0  0  0  0
 23 45  1  0  0  0  0
 27 28  1  0  0  0  0
 27 46  1  0  0  0  0
 28 29  2  0  0  0  0
 28 47  1  0  0  0  0
 29 30  1  0  0  0  0
 30 31  2  0  0  0  0
 30 48  1  0  0  0  0
 31 49  1  0  0  0  0
M  END
$$$$
