613
 OpenBabel04091915023D

 32 33  0  0  0  0  0  0  0  0999 V2000
   33.7358   -7.2790    3.4660 C   0  0  0  0  0  0  0  0  0  0  0  0
   34.0120   -5.5454    5.2039 N   0  0  0  0  0  0  0  0  0  0  0  0
   33.6902  -11.2818    3.5723 Cl  0  0  0  0  0  0  0  0  0  0  0  0
   33.6760   -8.6278    3.0821 C   0  0  0  0  0  0  0  0  0  0  0  0
   33.8064   -2.7401    5.8864 N   0  0  0  0  0  0  0  0  0  0  0  0
   33.7788   -9.6324    4.0396 C   0  0  0  0  0  0  0  0  0  0  0  0
   33.7928   -0.3894    5.5139 N   0  0  0  0  0  0  0  0  0  0  0  0
   33.9476   -9.2871    5.3746 C   0  0  0  0  0  0  0  0  0  0  0  0
   31.9742   -1.3822    6.5003 N   0  0  0  0  0  0  0  0  0  0  0  0
   33.9915   -7.9399    5.7493 C   0  0  0  0  0  0  0  0  0  0  0  0
   33.8889   -6.8925    4.8060 C   0  0  0  0  0  0  0  0  0  0  0  0
   33.1067   -5.1278    6.2941 C   0  0  0  0  0  0  0  0  0  0  0  0
   33.5832   -3.8041    6.9128 C   0  0  0  0  0  0  0  0  0  0  0  0
   34.6848   -3.1806    4.7436 C   0  0  0  0  0  0  0  0  0  0  0  0
   34.1867   -4.5240    4.1462 C   0  0  0  0  0  0  0  0  0  0  0  0
   33.2039   -1.5194    5.9594 C   0  0  0  0  0  0  0  0  0  0  0  0
   33.6512   -6.5434    2.6726 H   0  0  0  0  0  0  0  0  0  0  0  0
   33.5529   -8.8839    2.0336 H   0  0  0  0  0  0  0  0  0  0  0  0
   33.3829    0.5183    5.6810 H   0  0  0  0  0  0  0  0  0  0  0  0
   34.0234  -10.0658    6.1385 H   0  0  0  0  0  0  0  0  0  0  0  0
   31.4020   -2.1880    6.7086 H   0  0  0  0  0  0  0  0  0  0  0  0
   31.5263   -0.4804    6.5777 H   0  0  0  0  0  0  0  0  0  0  0  0
   34.1574   -7.7201    6.7972 H   0  0  0  0  0  0  0  0  0  0  0  0
   33.0531   -5.8725    7.0938 H   0  0  0  0  0  0  0  0  0  0  0  0
   32.0950   -4.9802    5.8970 H   0  0  0  0  0  0  0  0  0  0  0  0
   32.8620   -3.4533    7.6547 H   0  0  0  0  0  0  0  0  0  0  0  0
   34.5344   -3.9651    7.4391 H   0  0  0  0  0  0  0  0  0  0  0  0
   35.7109   -3.3038    5.1108 H   0  0  0  0  0  0  0  0  0  0  0  0
   34.6781   -2.4189    3.9581 H   0  0  0  0  0  0  0  0  0  0  0  0
   33.2285   -4.3532    3.6371 H   0  0  0  0  0  0  0  0  0  0  0  0
   34.9225   -4.8575    3.4058 H   0  0  0  0  0  0  0  0  0  0  0  0
   34.7461   -0.3973    5.1734 H   0  0  0  0  0  0  0  0  0  0  0  0
  1  4  2  0  0  0  0
  1 11  1  0  0  0  0
  1 17  1  0  0  0  0
  2 11  1  0  0  0  0
  2 12  1  0  0  0  0
  2 15  1  0  0  0  0
  3  6  1  0  0  0  0
  4  6  1  0  0  0  0
  4 18  1  0  0  0  0
  5 13  1  0  0  0  0
  5 14  1  0  0  0  0
  5 16  1  0  0  0  0
  6  8  2  0  0  0  0
  7 16  2  0  0  0  0
  7 19  1  0  0  0  0
  7 32  1  0  0  0  0
  8 10  1  0  0  0  0
  8 20  1  0  0  0  0
  9 16  1  0  0  0  0
  9 21  1  0  0  0  0
  9 22  1  0  0  0  0
 10 11  2  0  0  0  0
 10 23  1  0  0  0  0
 12 13  1  0  0  0  0
 12 24  1  0  0  0  0
 12 25  1  0  0  0  0
 13 26  1  0  0  0  0
 13 27  1  0  0  0  0
 14 15  1  0  0  0  0
 14 28  1  0  0  0  0
 14 29  1  0  0  0  0
 15 30  1  0  0  0  0
 15 31  1  0  0  0  0
M  END
$$$$
