673
 OpenBabel04091910513D

 51 52  0  0  0  0  0  0  0  0999 V2000
   56.3981   16.2223   57.5662 C   0  0  0  0  0  0  0  0  0  0  0  0
   52.6511    8.7043   53.9466 C   0  0  0  0  0  0  0  0  0  0  0  0
   52.5541   10.8673   55.2268 C   0  0  0  0  0  0  0  0  0  0  0  0
   56.9525   15.6951   56.4659 C   0  0  0  0  0  0  0  0  0  0  0  0
   58.2640   22.4256   53.7263 C   0  0  0  0  0  0  0  0  0  0  0  0
   57.4739   22.1281   52.6225 C   0  0  0  0  0  0  0  0  0  0  0  0
   58.6248   21.4098   54.6032 C   0  0  0  0  0  0  0  0  0  0  0  0
   57.0261   20.8221   52.4038 C   0  0  0  0  0  0  0  0  0  0  0  0
   58.1915   20.1006   54.3688 C   0  0  0  0  0  0  0  0  0  0  0  0
   56.3893   17.9123   51.8364 C   0  0  0  0  0  0  0  0  0  0  0  0
   55.8497   16.6283   51.6990 C   0  0  0  0  0  0  0  0  0  0  0  0
   56.7744   17.4860   54.1588 C   0  0  0  0  0  0  0  0  0  0  0  0
   56.1749   15.2616   55.2508 C   0  0  0  0  0  0  0  0  0  0  0  0
   55.0669   12.3635   51.8128 C   0  0  0  0  0  0  0  0  0  0  0  0
   54.6401   11.8854   53.1957 C   0  0  0  0  0  0  0  0  0  0  0  0
   55.9207   13.6248   51.9158 C   0  0  0  0  0  0  0  0  0  0  0  0
   53.7376   10.6984   53.0480 N   0  3  0  0  0  0  0  0  0  0  0  0
   55.1664   14.5648   52.6831 O   0  0  0  0  0  0  0  0  0  0  0  0
   57.3668   19.7672   53.2721 C   0  0  0  0  0  0  0  0  0  0  0  0
   56.8548   18.3832   53.0753 C   0  0  0  0  0  0  0  0  0  0  0  0
   56.2762   16.1753   54.0462 C   0  0  0  0  0  0  0  0  0  0  0  0
   55.8066   15.7681   52.7949 C   0  0  0  0  0  0  0  0  0  0  0  0
   53.3998    9.9768   54.3250 C   0  0  0  0  0  0  0  0  0  0  0  0
   57.0138   16.5466   58.4009 H   0  0  0  0  0  0  0  0  0  0  0  0
   55.3267   16.3789   57.6489 H   0  0  0  0  0  0  0  0  0  0  0  0
   52.4001    8.1230   54.8400 H   0  0  0  0  0  0  0  0  0  0  0  0
   53.2618    8.0687   53.2960 H   0  0  0  0  0  0  0  0  0  0  0  0
   51.7189    8.9308   53.4172 H   0  0  0  0  0  0  0  0  0  0  0  0
   53.1023   11.7597   55.5421 H   0  0  0  0  0  0  0  0  0  0  0  0
   52.2688   10.3289   56.1371 H   0  0  0  0  0  0  0  0  0  0  0  0
   51.6359   11.1914   54.7251 H   0  0  0  0  0  0  0  0  0  0  0  0
   58.0356   15.5885   56.4233 H   0  0  0  0  0  0  0  0  0  0  0  0
   58.5977   23.4417   53.9051 H   0  0  0  0  0  0  0  0  0  0  0  0
   57.1919   22.9210   51.9317 H   0  0  0  0  0  0  0  0  0  0  0  0
   59.2324   21.6302   55.4762 H   0  0  0  0  0  0  0  0  0  0  0  0
   56.3837   20.6537   51.5425 H   0  0  0  0  0  0  0  0  0  0  0  0
   58.5218   19.3456   55.0743 H   0  0  0  0  0  0  0  0  0  0  0  0
   56.4114   18.5451   50.9533 H   0  0  0  0  0  0  0  0  0  0  0  0
   55.4384   16.3272   50.7402 H   0  0  0  0  0  0  0  0  0  0  0  0
   57.0757   17.8316   55.1438 H   0  0  0  0  0  0  0  0  0  0  0  0
   55.1135   15.1498   55.5060 H   0  0  0  0  0  0  0  0  0  0  0  0
   56.5472   14.2670   54.9748 H   0  0  0  0  0  0  0  0  0  0  0  0
   54.1701   12.5882   51.2213 H   0  0  0  0  0  0  0  0  0  0  0  0
   55.6229   11.5807   51.2846 H   0  0  0  0  0  0  0  0  0  0  0  0
   54.0689   12.6486   53.7313 H   0  0  0  0  0  0  0  0  0  0  0  0
   55.5030   11.5752   53.7929 H   0  0  0  0  0  0  0  0  0  0  0  0
   56.1324   14.0020   50.9088 H   0  0  0  0  0  0  0  0  0  0  0  0
   56.8661   13.4000   52.4250 H   0  0  0  0  0  0  0  0  0  0  0  0
   52.8667   10.9970   52.5856 H   0  0  0  0  0  0  0  0  0  0  0  0
   54.3494    9.7206   54.8078 H   0  0  0  0  0  0  0  0  0  0  0  0
   54.1800   10.0281   52.4047 H   0  0  0  0  0  0  0  0  0  0  0  0
  1  4  2  0  0  0  0
  1 24  1  0  0  0  0
  1 25  1  0  0  0  0
  2 23  1  0  0  0  0
  2 26  1  0  0  0  0
  2 27  1  0  0  0  0
  2 28  1  0  0  0  0
  3 23  1  0  0  0  0
  3 29  1  0  0  0  0
  3 30  1  0  0  0  0
  3 31  1  0  0  0  0
  4 13  1  0  0  0  0
  4 32  1  0  0  0  0
  5  6  2  0  0  0  0
  5  7  1  0  0  0  0
  5 33  1  0  0  0  0
  6  8  1  0  0  0  0
  6 34  1  0  0  0  0
  7  9  2  0  0  0  0
  7 35  1  0  0  0  0
  8 19  2  0  0  0  0
  8 36  1  0  0  0  0
  9 19  1  0  0  0  0
  9 37  1  0  0  0  0
 10 11  2  0  0  0  0
 10 20  1  0  0  0  0
 10 38  1  0  0  0  0
 11 22  1  0  0  0  0
 11 39  1  0  0  0  0
 12 20  2  0  0  0  0
 12 21  1  0  0  0  0
 12 40  1  0  0  0  0
 13 21  1  0  0  0  0
 13 41  1  0  0  0  0
 13 42  1  0  0  0  0
 14 15  1  0  0  0  0
 14 16  1  0  0  0  0
 14 43  1  0  0  0  0
 14 44  1  0  0  0  0
 15 17  1  0  0  0  0
 15 45  1  0  0  0  0
 15 46  1  0  0  0  0
 16 18  1  0  0  0  0
 16 47  1  0  0  0  0
 16 48  1  0  0  0  0
 17 23  1  0  0  0  0
 17 49  1  0  0  0  0
 17 51  1  0  0  0  0
 18 22  1  0  0  0  0
 19 20  1  0  0  0  0
 21 22  2  0  0  0  0
 23 50  1  0  0  0  0
M  CHG  1  17   1
M  END
$$$$
