6HI
 OpenBabel04091911113D

 67 69  0  0  1  0  0  0  0  0999 V2000
  -16.0932    8.6917   46.8496 N   0  0  0  0  0  0  0  0  0  0  0  0
  -14.4722    4.5280   46.1307 C   0  0  0  0  0  0  0  0  0  0  0  0
  -14.8602    8.8249   46.2619 C   0  0  0  0  0  0  0  0  0  0  0  0
  -15.6072    5.3479   45.5137 C   0  0  0  0  0  0  0  0  0  0  0  0
  -13.2009    7.3379   44.8789 C   0  0  0  0  0  0  0  0  0  0  0  0
  -13.2244    8.0862   43.5538 C   0  0  0  0  0  0  0  0  0  0  0  0
  -12.8676    8.0885   41.0711 C   0  0  0  0  0  0  0  0  0  0  0  0
  -15.7531    5.1473   44.0064 C   0  0  0  0  0  0  0  0  0  0  0  0
  -12.0836   11.3129   46.7802 C   0  0  0  0  0  0  0  0  0  0  0  0
  -18.8302    5.0955   49.8047 C   0  0  0  0  0  0  0  0  0  0  0  0
  -19.0992    3.8746   50.4214 C   0  0  0  0  0  0  0  0  0  0  0  0
  -14.6838   11.2502   45.7579 C   0  0  0  0  0  0  0  0  0  0  0  0
  -13.9463   12.4444   45.7405 C   0  0  0  0  0  0  0  0  0  0  0  0
  -21.1920    5.4091   49.3950 C   0  0  0  0  0  0  0  0  0  0  0  0
  -20.6738    2.2608   51.1170 F   0  0  0  0  0  0  0  0  0  0  0  0
  -20.4125    3.4324   50.5218 C   0  0  0  0  0  0  0  0  0  0  0  0
  -21.4624    4.1888   50.0159 C   0  0  0  0  0  0  0  0  0  0  0  0
  -19.8686    5.8695   49.2677 C   0  0  0  0  0  0  0  0  0  0  0  0
  -19.6309    7.1975   48.5897 C   0  0  0  0  0  0  0  0  0  0  0  0
  -18.2756    7.4305   48.1741 N   0  0  0  0  0  0  0  0  0  0  0  0
  -17.8057    6.9702   46.9466 C   0  0  0  0  0  0  0  0  0  0  0  0
  -18.4857    6.1978   46.2472 O   0  0  0  0  0  0  0  0  0  0  0  0
  -16.4985    7.4600   46.5749 C   0  0  0  0  0  0  0  0  0  0  0  0
  -15.5189    6.7676   45.8777 N   0  3  0  0  0  0  0  0  0  0  0  0
  -14.4533    7.6366   45.6685 C   0  0  0  0  0  0  0  0  0  0  0  0
  -14.1161   10.0750   46.2738 C   0  0  0  0  0  0  0  0  0  0  0  0
  -12.6573   12.4599   46.2499 C   0  0  0  0  0  0  0  0  0  0  0  0
  -11.9521   13.6060   46.2466 F   0  0  0  0  0  0  0  0  0  0  0  0
  -12.8162   10.1218   46.7959 C   0  0  0  0  0  0  0  0  0  0  0  0
  -12.3216    7.5825   42.4183 C   0  0  2  0  0  0  0  0  0  0  0  0
  -12.2850    6.1546   42.3343 O   0  0  0  0  0  0  0  0  0  0  0  0
  -12.9495    9.6209   40.9695 C   0  0  1  0  0  0  0  0  0  0  0  0
  -11.6535   10.1252   41.3076 O   0  0  0  0  0  0  0  0  0  0  0  0
  -13.3792   10.0288   39.5668 C   0  0  0  0  0  0  0  0  0  0  0  0
  -13.8613   11.4765   39.4968 C   0  0  0  0  0  0  0  0  0  0  0  0
  -13.0661   12.2767   38.9268 O   0  0  0  0  0  0  0  0  0  0  0  0
  -15.0253   11.6825   39.9455 O   0  0  0  0  0  0  0  0  0  0  0  0
  -14.5544    3.4694   45.8692 H   0  0  0  0  0  0  0  0  0  0  0  0
  -14.4863    4.6241   47.2210 H   0  0  0  0  0  0  0  0  0  0  0  0
  -13.4838    4.8460   45.8100 H   0  0  0  0  0  0  0  0  0  0  0  0
  -16.5178    4.9455   45.9702 H   0  0  0  0  0  0  0  0  0  0  0  0
  -12.3201    7.6179   45.4682 H   0  0  0  0  0  0  0  0  0  0  0  0
  -13.0899    6.2799   44.6791 H   0  0  0  0  0  0  0  0  0  0  0  0
  -12.9629    9.1312   43.7499 H   0  0  0  0  0  0  0  0  0  0  0  0
  -14.2584    8.0785   43.1889 H   0  0  0  0  0  0  0  0  0  0  0  0
  -13.8630    7.6551   40.9034 H   0  0  0  0  0  0  0  0  0  0  0  0
  -12.2328    7.6888   40.2685 H   0  0  0  0  0  0  0  0  0  0  0  0
  -16.6103    5.7134   43.6229 H   0  0  0  0  0  0  0  0  0  0  0  0
  -15.9172    4.0908   43.7644 H   0  0  0  0  0  0  0  0  0  0  0  0
  -14.8662    5.4795   43.4630 H   0  0  0  0  0  0  0  0  0  0  0  0
  -11.0746   11.3471   47.1750 H   0  0  0  0  0  0  0  0  0  0  0  0
  -17.7967    5.4305   49.7270 H   0  0  0  0  0  0  0  0  0  0  0  0
  -18.2914    3.2678   50.8199 H   0  0  0  0  0  0  0  0  0  0  0  0
  -15.6904   11.2428   45.3475 H   0  0  0  0  0  0  0  0  0  0  0  0
  -14.3729   13.3507   45.3214 H   0  0  0  0  0  0  0  0  0  0  0  0
  -22.0159    5.9945   48.9925 H   0  0  0  0  0  0  0  0  0  0  0  0
  -22.4819    3.8254   50.1012 H   0  0  0  0  0  0  0  0  0  0  0  0
  -19.9009    8.0055   49.2823 H   0  0  0  0  0  0  0  0  0  0  0  0
  -20.2845    7.2735   47.7064 H   0  0  0  0  0  0  0  0  0  0  0  0
  -17.6472    7.9851   48.7297 H   0  0  0  0  0  0  0  0  0  0  0  0
  -12.3674    9.2294   47.2210 H   0  0  0  0  0  0  0  0  0  0  0  0
  -11.2920    7.9317   42.5664 H   0  0  0  0  0  0  0  0  0  0  0  0
  -11.8382    5.8177   43.1264 H   0  0  0  0  0  0  0  0  0  0  0  0
  -13.6585   10.0093   41.7073 H   0  0  0  0  0  0  0  0  0  0  0  0
  -11.0376    9.8319   40.6154 H   0  0  0  0  0  0  0  0  0  0  0  0
  -14.2164    9.3975   39.2390 H   0  0  0  0  0  0  0  0  0  0  0  0
  -12.5633    9.8817   38.8524 H   0  0  0  0  0  0  0  0  0  0  0  0
  1  3  1  0  0  0  0
  1 23  1  0  0  0  0
  2  4  1  0  0  0  0
  2 38  1  0  0  0  0
  2 39  1  0  0  0  0
  2 40  1  0  0  0  0
  3 25  2  0  0  0  0
  3 26  1  0  0  0  0
  4  8  1  0  0  0  0
  4 24  1  0  0  0  0
  4 41  1  0  0  0  0
  5  6  1  0  0  0  0
  5 25  1  0  0  0  0
  5 42  1  0  0  0  0
  5 43  1  0  0  0  0
  6 30  1  0  0  0  0
  6 44  1  0  0  0  0
  6 45  1  0  0  0  0
  7 30  1  0  0  0  0
  7 32  1  0  0  0  0
  7 46  1  0  0  0  0
  7 47  1  0  0  0  0
  8 48  1  0  0  0  0
  8 49  1  0  0  0  0
  8 50  1  0  0  0  0
  9 27  2  0  0  0  0
  9 29  1  0  0  0  0
  9 51  1  0  0  0  0
 10 11  2  0  0  0  0
 10 18  1  0  0  0  0
 10 52  1  0  0  0  0
 11 16  1  0  0  0  0
 11 53  1  0  0  0  0
 12 13  2  0  0  0  0
 12 26  1  0  0  0  0
 12 54  1  0  0  0  0
 13 27  1  0  0  0  0
 13 55  1  0  0  0  0
 14 17  1  0  0  0  0
 14 18  2  0  0  0  0
 14 56  1  0  0  0  0
 15 16  1  0  0  0  0
 16 17  2  0  0  0  0
 17 57  1  0  0  0  0
 18 19  1  0  0  0  0
 19 20  1  0  0  0  0
 19 58  1  0  0  0  0
 19 59  1  0  0  0  0
 20 21  1  0  0  0  0
 20 60  1  0  0  0  0
 21 22  2  0  0  0  0
 21 23  1  0  0  0  0
 23 24  2  0  0  0  0
 24 25  1  0  0  0  0
 26 29  2  0  0  0  0
 27 28  1  0  0  0  0
 29 61  1  0  0  0  0
 30 31  1  0  0  0  0
 30 62  1  1  0  0  0
 31 63  1  0  0  0  0
 32 33  1  0  0  0  0
 32 34  1  0  0  0  0
 32 64  1  1  0  0  0
 33 65  1  0  0  0  0
 34 35  1  0  0  0  0
 34 66  1  0  0  0  0
 34 67  1  0  0  0  0
 35 36  2  0  0  0  0
 35 37  1  0  0  0  0
M  CHG  1  24   1
M  END
$$$$
