6XP
 OpenBabel04091916523D

 43 45  0  0  1  0  0  0  0  0999 V2000
   19.7037    7.1172    8.2559 C   0  0  0  0  0  0  0  0  0  0  0  0
   16.8968    8.1440    7.8553 C   0  0  0  0  0  0  0  0  0  0  0  0
   17.5085    8.4061    5.5424 C   0  0  0  0  0  0  0  0  0  0  0  0
   15.5564    8.1250    7.4959 C   0  0  0  0  0  0  0  0  0  0  0  0
   16.1541    8.4205    5.1793 C   0  0  0  0  0  0  0  0  0  0  0  0
   19.9063    9.5724    7.8292 C   0  0  0  0  0  0  0  0  0  0  0  0
   21.1449   14.7662    1.3292 C   0  0  0  0  0  0  0  0  0  0  0  0
   19.3842    8.2399    7.2614 C   0  0  2  0  0  0  0  0  0  0  0  0
   20.9476   13.6063    4.0948 N   0  0  0  0  0  0  0  0  0  0  0  0
   20.3097   10.3316    5.5214 N   0  0  0  0  0  0  0  0  0  0  0  0
   20.3606   10.5083    6.9119 N   0  0  0  0  0  0  0  0  0  0  0  0
   20.9475   13.1920    6.3757 O   0  0  0  0  0  0  0  0  0  0  0  0
   19.9665    9.8106    9.0232 O   0  0  0  0  0  0  0  0  0  0  0  0
   13.8578    8.2954    5.8748 O   0  0  0  0  0  0  0  0  0  0  0  0
   19.7265    9.0008    2.5449 Cl  0  0  0  0  0  0  0  0  0  0  0  0
   17.9081    8.2729    6.8833 C   0  0  0  0  0  0  0  0  0  0  0  0
   15.1896    8.2789    6.1634 C   0  0  0  0  0  0  0  0  0  0  0  0
   20.5606   12.4119    0.6194 C   0  0  0  0  0  0  0  0  0  0  0  0
   20.2401   11.0737    0.9279 C   0  0  0  0  0  0  0  0  0  0  0  0
   20.3498   11.5556    3.2662 C   0  0  0  0  0  0  0  0  0  0  0  0
   20.8263   13.3335    1.6320 C   0  0  0  0  0  0  0  0  0  0  0  0
   20.0387   11.5327    4.7442 C   0  0  2  0  0  0  0  0  0  0  0  0
   20.1394   10.6410    2.2534 C   0  0  0  0  0  0  0  0  0  0  0  0
   20.7308   12.8685    2.9330 C   0  0  0  0  0  0  0  0  0  0  0  0
   20.7251   12.8382    5.2318 C   0  0  0  0  0  0  0  0  0  0  0  0
   20.7720    7.1098    8.5016 H   0  0  0  0  0  0  0  0  0  0  0  0
   19.4444    6.1413    7.8317 H   0  0  0  0  0  0  0  0  0  0  0  0
   19.1645    7.2291    9.2029 H   0  0  0  0  0  0  0  0  0  0  0  0
   17.1550    8.0380    8.9049 H   0  0  0  0  0  0  0  0  0  0  0  0
   18.2488    8.4913    4.7627 H   0  0  0  0  0  0  0  0  0  0  0  0
   14.7941    8.0092    8.2536 H   0  0  0  0  0  0  0  0  0  0  0  0
   15.8762    8.5252    4.1333 H   0  0  0  0  0  0  0  0  0  0  0  0
   21.1605   14.9578    0.2498 H   0  0  0  0  0  0  0  0  0  0  0  0
   22.1321   15.0252    1.7289 H   0  0  0  0  0  0  0  0  0  0  0  0
   20.3936   15.4251    1.7731 H   0  0  0  0  0  0  0  0  0  0  0  0
   19.9726    7.9942    6.3649 H   0  0  0  0  0  0  0  0  0  0  0  0
   21.2552   14.5665    4.1348 H   0  0  0  0  0  0  0  0  0  0  0  0
   20.9961    9.6774    5.1536 H   0  0  0  0  0  0  0  0  0  0  0  0
   20.7198   11.3806    7.3163 H   0  0  0  0  0  0  0  0  0  0  0  0
   13.7005    9.0688    5.3065 H   0  0  0  0  0  0  0  0  0  0  0  0
   20.5762   12.7121   -0.4263 H   0  0  0  0  0  0  0  0  0  0  0  0
   20.0326   10.3816    0.1135 H   0  0  0  0  0  0  0  0  0  0  0  0
   18.9660   11.7364    4.8184 H   0  0  0  0  0  0  0  0  0  0  0  0
  1  8  1  0  0  0  0
  1 26  1  0  0  0  0
  1 27  1  0  0  0  0
  1 28  1  0  0  0  0
  2  4  2  0  0  0  0
  2 16  1  0  0  0  0
  2 29  1  0  0  0  0
  3  5  1  0  0  0  0
  3 16  2  0  0  0  0
  3 30  1  0  0  0  0
  4 17  1  0  0  0  0
  4 31  1  0  0  0  0
  5 17  2  0  0  0  0
  5 32  1  0  0  0  0
  6  8  1  0  0  0  0
  6 11  1  0  0  0  0
  6 13  2  0  0  0  0
  7 21  1  0  0  0  0
  7 33  1  0  0  0  0
  7 34  1  0  0  0  0
  7 35  1  0  0  0  0
  8 16  1  0  0  0  0
  8 36  1  6  0  0  0
  9 24  1  0  0  0  0
  9 25  1  0  0  0  0
  9 37  1  0  0  0  0
 10 11  1  0  0  0  0
 10 22  1  0  0  0  0
 10 38  1  0  0  0  0
 11 39  1  0  0  0  0
 12 25  2  0  0  0  0
 14 17  1  0  0  0  0
 14 40  1  0  0  0  0
 15 23  1  0  0  0  0
 18 19  2  0  0  0  0
 18 21  1  0  0  0  0
 18 41  1  0  0  0  0
 19 23  1  0  0  0  0
 19 42  1  0  0  0  0
 20 22  1  0  0  0  0
 20 23  2  0  0  0  0
 20 24  1  0  0  0  0
 21 24  2  0  0  0  0
 22 25  1  0  0  0  0
 22 43  1  1  0  0  0
M  END
$$$$
