705
 OpenBabel04091913013D

 70 74  0  0  1  0  0  0  0  0999 V2000
   -3.1908   12.2338  -37.1875 F   0  0  0  0  0  0  0  0  0  0  0  0
   -4.2889   11.9803  -36.4389 C   0  0  0  0  0  0  0  0  0  0  0  0
   -5.5375   12.2684  -36.9611 C   0  0  0  0  0  0  0  0  0  0  0  0
   -6.6691   11.9924  -36.1863 C   0  0  0  0  0  0  0  0  0  0  0  0
   -4.1258   11.4373  -35.1738 C   0  0  0  0  0  0  0  0  0  0  0  0
   -5.2580   11.1784  -34.4051 C   0  0  0  0  0  0  0  0  0  0  0  0
   -6.5517   11.4399  -34.8962 C   0  0  0  0  0  0  0  0  0  0  0  0
   -7.7358   11.1393  -34.0729 C   0  0  0  0  0  0  0  0  0  0  0  0
   -8.8406   12.0052  -34.0468 C   0  0  0  0  0  0  0  0  0  0  0  0
   -7.7863    9.9876  -33.2694 C   0  0  0  0  0  0  0  0  0  0  0  0
   -8.8854    9.7311  -32.4612 C   0  0  0  0  0  0  0  0  0  0  0  0
   -8.8515    8.6065  -31.6861 O   0  0  0  0  0  0  0  0  0  0  0  0
   -9.9759   10.5974  -32.4464 C   0  0  0  0  0  0  0  0  0  0  0  0
  -11.0197   10.3108  -31.6041 O   0  0  0  0  0  0  0  0  0  0  0  0
   -9.9662   11.7432  -33.2512 C   0  0  0  0  0  0  0  0  0  0  0  0
  -11.0617   12.7484  -33.3178 C   0  0  0  0  0  0  0  0  0  0  0  0
  -10.8597   13.8694  -33.7725 O   0  0  0  0  0  0  0  0  0  0  0  0
  -12.2882   12.3352  -32.8774 N   0  0  0  0  0  0  0  0  0  0  0  0
  -13.4113   13.2254  -32.8614 C   0  0  0  0  0  0  0  0  0  0  0  0
  -14.6355   12.3822  -32.7337 C   0  0  0  0  0  0  0  0  0  0  0  0
  -15.8060   12.7292  -33.2827 C   0  0  0  0  0  0  0  0  0  0  0  0
  -17.0284   11.8596  -33.2476 C   0  0  2  0  0  0  0  0  0  0  0  0
  -17.8295   11.9411  -34.5460 C   0  0  1  0  0  0  0  0  0  0  0  0
  -18.7134   10.8200  -34.6966 O   0  0  0  0  0  0  0  0  0  0  0  0
  -18.6308   13.2226  -34.3266 C   0  0  1  0  0  0  0  0  0  0  0  0
  -19.7859   13.3066  -35.1483 O   0  0  0  0  0  0  0  0  0  0  0  0
  -17.8917   12.3642  -32.2140 O   0  0  0  0  0  0  0  0  0  0  0  0
  -18.9525   13.1236  -32.8305 C   0  0  1  0  0  0  0  0  0  0  0  0
  -19.0722   14.3747  -32.1222 N   0  3  0  0  0  0  0  0  0  0  0  0
  -18.1422   15.3751  -32.0720 C   0  0  0  0  0  0  0  0  0  0  0  0
  -20.0893   14.7091  -31.2667 C   0  0  0  0  0  0  0  0  0  0  0  0
  -21.1989   14.0039  -30.9884 N   0  0  0  0  0  0  0  0  0  0  0  0
  -21.9435   14.6349  -30.0575 C   0  0  0  0  0  0  0  0  0  0  0  0
  -21.6895   15.8016  -29.4260 N   0  0  0  0  0  0  0  0  0  0  0  0
  -20.5455   16.4711  -29.7240 C   0  0  0  0  0  0  0  0  0  0  0  0
  -19.7022   15.9185  -30.7107 C   0  0  0  0  0  0  0  0  0  0  0  0
  -18.5000   16.3331  -31.2505 N   0  0  0  0  0  0  0  0  0  0  0  0
  -20.2845   17.6127  -28.9854 N   0  0  0  0  0  0  0  0  0  0  0  0
  -19.3456   18.6120  -29.4613 C   0  0  0  0  0  0  0  0  0  0  0  0
  -19.9533   19.4766  -30.5670 C   0  0  0  0  0  0  0  0  0  0  0  0
  -19.2278   20.8071  -30.6735 C   0  0  0  0  0  0  0  0  0  0  0  0
   -5.6287   12.6935  -37.9475 H   0  0  0  0  0  0  0  0  0  0  0  0
   -7.6474   12.2070  -36.6126 H   0  0  0  0  0  0  0  0  0  0  0  0
   -3.1373   11.2170  -34.7897 H   0  0  0  0  0  0  0  0  0  0  0  0
   -5.1227   10.7774  -33.4014 H   0  0  0  0  0  0  0  0  0  0  0  0
   -8.8273   12.9175  -34.6437 H   0  0  0  0  0  0  0  0  0  0  0  0
   -6.9610    9.2776  -33.2691 H   0  0  0  0  0  0  0  0  0  0  0  0
   -9.7494    8.4477  -31.3488 H   0  0  0  0  0  0  0  0  0  0  0  0
  -10.6348   10.2855  -30.7064 H   0  0  0  0  0  0  0  0  0  0  0  0
  -12.3297   11.4425  -32.3959 H   0  0  0  0  0  0  0  0  0  0  0  0
  -13.4147   13.8122  -33.7890 H   0  0  0  0  0  0  0  0  0  0  0  0
  -13.3103   13.9076  -32.0124 H   0  0  0  0  0  0  0  0  0  0  0  0
  -14.5590   11.4432  -32.1966 H   0  0  0  0  0  0  0  0  0  0  0  0
  -15.8666   13.6828  -33.8026 H   0  0  0  0  0  0  0  0  0  0  0  0
  -16.7698   10.8263  -32.9862 H   0  0  0  0  0  0  0  0  0  0  0  0
  -17.1944   11.9755  -35.4374 H   0  0  0  0  0  0  0  0  0  0  0  0
  -19.1512   10.6349  -33.8474 H   0  0  0  0  0  0  0  0  0  0  0  0
  -18.0024   14.0917  -34.5515 H   0  0  0  0  0  0  0  0  0  0  0  0
  -20.2994   12.4866  -35.0244 H   0  0  0  0  0  0  0  0  0  0  0  0
  -19.8851   12.5668  -32.6884 H   0  0  0  0  0  0  0  0  0  0  0  0
  -17.2168   15.3613  -32.6302 H   0  0  0  0  0  0  0  0  0  0  0  0
  -22.8658   14.1375  -29.7693 H   0  0  0  0  0  0  0  0  0  0  0  0
  -21.0981   17.9313  -28.4735 H   0  0  0  0  0  0  0  0  0  0  0  0
  -18.3993   18.1690  -29.7895 H   0  0  0  0  0  0  0  0  0  0  0  0
  -19.0778   19.2358  -28.6031 H   0  0  0  0  0  0  0  0  0  0  0  0
  -21.0145   19.6644  -30.3669 H   0  0  0  0  0  0  0  0  0  0  0  0
  -19.9012   18.9518  -31.5291 H   0  0  0  0  0  0  0  0  0  0  0  0
  -19.6763   21.4233  -31.4585 H   0  0  0  0  0  0  0  0  0  0  0  0
  -18.1702   20.6608  -30.9120 H   0  0  0  0  0  0  0  0  0  0  0  0
  -19.2947   21.3568  -29.7286 H   0  0  0  0  0  0  0  0  0  0  0  0
  1  2  1  0  0  0  0
  2  3  2  0  0  0  0
  2  5  1  0  0  0  0
  3  4  1  0  0  0  0
  3 42  1  0  0  0  0
  4  7  2  0  0  0  0
  4 43  1  0  0  0  0
  5  6  2  0  0  0  0
  5 44  1  0  0  0  0
  6  7  1  0  0  0  0
  6 45  1  0  0  0  0
  7  8  1  0  0  0  0
  8  9  2  0  0  0  0
  8 10  1  0  0  0  0
  9 15  1  0  0  0  0
  9 46  1  0  0  0  0
 10 11  2  0  0  0  0
 10 47  1  0  0  0  0
 11 12  1  0  0  0  0
 11 13  1  0  0  0  0
 12 48  1  0  0  0  0
 13 14  1  0  0  0  0
 13 15  2  0  0  0  0
 14 49  1  0  0  0  0
 15 16  1  0  0  0  0
 16 17  2  0  0  0  0
 16 18  1  0  0  0  0
 18 19  1  0  0  0  0
 18 50  1  0  0  0  0
 19 20  1  0  0  0  0
 19 51  1  0  0  0  0
 19 52  1  0  0  0  0
 20 21  2  0  0  0  0
 20 53  1  0  0  0  0
 21 22  1  0  0  0  0
 21 54  1  0  0  0  0
 22 23  1  0  0  0  0
 22 27  1  0  0  0  0
 22 55  1  1  0  0  0
 23 24  1  0  0  0  0
 23 25  1  0  0  0  0
 23 56  1  6  0  0  0
 24 57  1  0  0  0  0
 25 26  1  0  0  0  0
 25 28  1  0  0  0  0
 25 58  1  6  0  0  0
 26 59  1  0  0  0  0
 27 28  1  0  0  0  0
 28 29  1  0  0  0  0
 28 60  1  1  0  0  0
 29 30  2  0  0  0  0
 29 31  1  0  0  0  0
 30 37  1  0  0  0  0
 30 61  1  0  0  0  0
 31 32  2  0  0  0  0
 31 36  1  0  0  0  0
 32 33  1  0  0  0  0
 33 34  2  0  0  0  0
 33 62  1  0  0  0  0
 34 35  1  0  0  0  0
 35 36  2  0  0  0  0
 35 38  1  0  0  0  0
 36 37  1  0  0  0  0
 38 39  1  0  0  0  0
 38 63  1  0  0  0  0
 39 40  1  0  0  0  0
 39 64  1  0  0  0  0
 39 65  1  0  0  0  0
 40 41  1  0  0  0  0
 40 66  1  0  0  0  0
 40 67  1  0  0  0  0
 41 68  1  0  0  0  0
 41 69  1  0  0  0  0
 41 70  1  0  0  0  0
M  CHG  1  29   1
M  END
$$$$
