727
 OpenBabel04091913343D

 42 45  0  0  1  0  0  0  0  0999 V2000
    6.1239    8.1891   24.1101 N   0  3  0  0  0  0  0  0  0  0  0  0
    7.4985    7.9848   24.3156 N   0  3  0  0  0  0  0  0  0  0  0  0
    5.4255    8.3292   25.3056 C   0  0  0  0  0  0  0  0  0  0  0  0
    7.5700   11.2520   23.4858 N   0  0  0  0  0  0  0  0  0  0  0  0
    7.3006   10.3454   22.5103 C   0  0  0  0  0  0  0  0  0  0  0  0
    5.7771   10.0776   22.4700 C   0  0  1  0  0  0  0  0  0  0  0  0
    5.3745   10.9862   23.5226 N   0  0  0  0  0  0  0  0  0  0  0  0
    6.4348   11.6218   24.1206 C   0  0  0  0  0  0  0  0  0  0  0  0
    6.3622   12.3906   25.0574 O   0  0  0  0  0  0  0  0  0  0  0  0
    8.1563    9.7915   21.8463 O   0  0  0  0  0  0  0  0  0  0  0  0
    5.1009   10.4840   21.1665 C   0  0  0  0  0  0  0  0  0  0  0  0
    5.6106    8.5689   22.8126 C   0  0  0  0  0  0  0  0  0  0  0  0
    6.4419    8.2620   26.3555 C   0  0  0  0  0  0  0  0  0  0  0  0
    7.6643    8.1787   25.6858 C   0  0  0  0  0  0  0  0  0  0  0  0
    8.8347    8.1245   26.4047 C   0  0  0  0  0  0  0  0  0  0  0  0
    8.7481    8.1368   27.8016 C   0  0  0  0  0  0  0  0  0  0  0  0
    7.5008    8.2111   28.4622 C   0  0  0  0  0  0  0  0  0  0  0  0
    6.3178    8.2949   27.7262 C   0  0  0  0  0  0  0  0  0  0  0  0
    4.2399    8.5461   25.4666 O   0  0  0  0  0  0  0  0  0  0  0  0
    7.3324    8.2009   29.8215 O   0  0  0  0  0  0  0  0  0  0  0  0
    8.5225    8.0772   30.5899 C   0  0  0  0  0  0  0  0  0  0  0  0
    5.6691   11.4472   20.3127 C   0  0  0  0  0  0  0  0  0  0  0  0
    5.0375   11.8274   19.1284 C   0  0  0  0  0  0  0  0  0  0  0  0
    3.8131   11.2592   18.7777 C   0  0  0  0  0  0  0  0  0  0  0  0
    3.2171   10.3251   19.6241 C   0  0  0  0  0  0  0  0  0  0  0  0
    3.8434    9.9584   20.8121 C   0  0  0  0  0  0  0  0  0  0  0  0
    8.2007    8.2683   23.6338 H   0  0  0  0  0  0  0  0  0  0  0  0
    8.4858   11.5391   23.7779 H   0  0  0  0  0  0  0  0  0  0  0  0
    4.4332   11.0934   23.8817 H   0  0  0  0  0  0  0  0  0  0  0  0
    4.5518    8.2924   22.8332 H   0  0  0  0  0  0  0  0  0  0  0  0
    6.0956    7.9379   22.0569 H   0  0  0  0  0  0  0  0  0  0  0  0
    9.7981    8.0473   25.9136 H   0  0  0  0  0  0  0  0  0  0  0  0
    9.6791    8.0650   28.3550 H   0  0  0  0  0  0  0  0  0  0  0  0
    5.3476    8.3588   28.2043 H   0  0  0  0  0  0  0  0  0  0  0  0
    8.2469    8.0805   31.6477 H   0  0  0  0  0  0  0  0  0  0  0  0
    9.1889    8.9280   30.4129 H   0  0  0  0  0  0  0  0  0  0  0  0
    9.0278    7.1291   30.3758 H   0  0  0  0  0  0  0  0  0  0  0  0
    6.6135   11.9285   20.5536 H   0  0  0  0  0  0  0  0  0  0  0  0
    5.4949   12.5677   18.4804 H   0  0  0  0  0  0  0  0  0  0  0  0
    3.3229   11.5456   17.8535 H   0  0  0  0  0  0  0  0  0  0  0  0
    2.2531    9.9000   19.3635 H   0  0  0  0  0  0  0  0  0  0  0  0
    3.3176    9.2534   21.4516 H   0  0  0  0  0  0  0  0  0  0  0  0
  1  2  2  0  0  0  0
  1  3  1  0  0  0  0
  1 12  1  0  0  0  0
  2 14  1  0  0  0  0
  2 27  1  0  0  0  0
  3 13  1  0  0  0  0
  3 19  2  0  0  0  0
  4  5  1  0  0  0  0
  4  8  1  0  0  0  0
  4 28  1  0  0  0  0
  5  6  1  0  0  0  0
  5 10  2  0  0  0  0
  6  7  1  0  0  0  0
  6 11  1  6  0  0  0
  6 12  1  0  0  0  0
  7  8  1  0  0  0  0
  7 29  1  0  0  0  0
  8  9  2  0  0  0  0
 11 22  2  0  0  0  0
 11 26  1  0  0  0  0
 12 30  1  0  0  0  0
 12 31  1  0  0  0  0
 13 14  2  0  0  0  0
 13 18  1  0  0  0  0
 14 15  1  0  0  0  0
 15 16  2  0  0  0  0
 15 32  1  0  0  0  0
 16 17  1  0  0  0  0
 16 33  1  0  0  0  0
 17 18  2  0  0  0  0
 17 20  1  0  0  0  0
 18 34  1  0  0  0  0
 20 21  1  0  0  0  0
 21 35  1  0  0  0  0
 21 36  1  0  0  0  0
 21 37  1  0  0  0  0
 22 23  1  0  0  0  0
 22 38  1  0  0  0  0
 23 24  2  0  0  0  0
 23 39  1  0  0  0  0
 24 25  1  0  0  0  0
 24 40  1  0  0  0  0
 25 26  2  0  0  0  0
 25 41  1  0  0  0  0
 26 42  1  0  0  0  0
M  CHG  2   1   1   2   1
M  END
$$$$
