93N
 OpenBabel04091913583D

 53 55  0  0  0  0  0  0  0  0999 V2000
   13.8617   -7.1965   19.2352 N   0  0  0  0  0  0  0  0  0  0  0  0
   12.5962   -7.2692   18.7629 C   0  0  0  0  0  0  0  0  0  0  0  0
   11.6120   -6.3946   19.2161 C   0  0  0  0  0  0  0  0  0  0  0  0
   11.9430   -5.4260   20.1692 C   0  0  0  0  0  0  0  0  0  0  0  0
   13.2446   -5.3492   20.6528 C   0  0  0  0  0  0  0  0  0  0  0  0
   14.1704   -6.2585   20.1576 C   0  0  0  0  0  0  0  0  0  0  0  0
   12.3688   -8.3472   17.7718 C   0  0  0  0  0  0  0  0  0  0  0  0
   11.0957   -8.8738   17.4942 C   0  0  0  0  0  0  0  0  0  0  0  0
   10.8899   -9.9239   16.5611 C   0  0  0  0  0  0  0  0  0  0  0  0
   12.0035  -10.4912   15.9170 C   0  0  0  0  0  0  0  0  0  0  0  0
   13.2763   -9.9637   16.1582 C   0  0  0  0  0  0  0  0  0  0  0  0
   13.4515   -8.9186   17.0793 C   0  0  0  0  0  0  0  0  0  0  0  0
   11.7950  -11.4799   14.9879 O   0  0  0  0  0  0  0  0  0  0  0  0
   12.5509  -12.6927   15.1776 C   0  0  0  0  0  0  0  0  0  0  0  0
   12.6214  -13.4910   13.8679 C   0  0  0  0  0  0  0  0  0  0  0  0
   11.3611  -14.3456   13.6293 C   0  0  0  0  0  0  0  0  0  0  0  0
   10.1226  -13.5610   13.5086 N   0  0  0  0  0  0  0  0  0  0  0  0
   15.5358   -6.2610   20.5537 C   0  0  0  0  0  0  0  0  0  0  0  0
   16.6778   -6.2946   20.8269 N   0  0  0  0  0  0  0  0  0  0  0  0
    9.4881  -10.4471   16.3582 C   0  0  0  0  0  0  0  0  0  0  0  0
    9.0839  -10.4927   15.0601 F   0  0  0  0  0  0  0  0  0  0  0  0
    8.5299   -9.6873   16.9676 F   0  0  0  0  0  0  0  0  0  0  0  0
    9.3053  -11.7075   16.8423 F   0  0  0  0  0  0  0  0  0  0  0  0
    7.6224  -13.5345   13.4039 C   0  0  0  0  0  0  0  0  0  0  0  0
    7.7050  -12.6631   12.1476 N   0  3  0  0  0  0  0  0  0  0  0  0
    8.8921  -11.7271   12.3435 C   0  0  0  0  0  0  0  0  0  0  0  0
   10.1739  -12.5687   12.4098 C   0  0  0  0  0  0  0  0  0  0  0  0
    8.9057  -14.4003   13.4829 C   0  0  0  0  0  0  0  0  0  0  0  0
    6.4247  -11.9685   11.7820 C   0  0  0  0  0  0  0  0  0  0  0  0
   10.5942   -6.4495   18.8466 H   0  0  0  0  0  0  0  0  0  0  0  0
   11.1855   -4.7360   20.5307 H   0  0  0  0  0  0  0  0  0  0  0  0
   13.5243   -4.6028   21.3900 H   0  0  0  0  0  0  0  0  0  0  0  0
   10.2327   -8.4763   18.0261 H   0  0  0  0  0  0  0  0  0  0  0  0
   14.1547  -10.3504   15.6436 H   0  0  0  0  0  0  0  0  0  0  0  0
   14.4604   -8.5466   17.2684 H   0  0  0  0  0  0  0  0  0  0  0  0
   12.0578  -13.3109   15.9380 H   0  0  0  0  0  0  0  0  0  0  0  0
   13.5745  -12.4741   15.4987 H   0  0  0  0  0  0  0  0  0  0  0  0
   13.4975  -14.1578   13.8928 H   0  0  0  0  0  0  0  0  0  0  0  0
   12.7589  -12.8105   13.0183 H   0  0  0  0  0  0  0  0  0  0  0  0
   11.2802  -15.0431   14.4757 H   0  0  0  0  0  0  0  0  0  0  0  0
   11.5172  -14.9410   12.7192 H   0  0  0  0  0  0  0  0  0  0  0  0
    6.7202  -14.1526   13.3412 H   0  0  0  0  0  0  0  0  0  0  0  0
    7.5572  -12.8706   14.2738 H   0  0  0  0  0  0  0  0  0  0  0  0
    8.7305  -11.1906   13.2706 H   0  0  0  0  0  0  0  0  0  0  0  0
    8.9130  -11.0038   11.5169 H   0  0  0  0  0  0  0  0  0  0  0  0
   10.3102  -13.0679   11.4410 H   0  0  0  0  0  0  0  0  0  0  0  0
   11.0058  -11.8680   12.5412 H   0  0  0  0  0  0  0  0  0  0  0  0
    8.8323  -15.0136   14.3915 H   0  0  0  0  0  0  0  0  0  0  0  0
    8.9179  -15.0803   12.6193 H   0  0  0  0  0  0  0  0  0  0  0  0
    5.6450  -12.7214   11.6346 H   0  0  0  0  0  0  0  0  0  0  0  0
    6.5761  -11.4152   10.8496 H   0  0  0  0  0  0  0  0  0  0  0  0
    6.1506  -11.2862   12.5904 H   0  0  0  0  0  0  0  0  0  0  0  0
    7.9560  -13.2859   11.3718 H   0  0  0  0  0  0  0  0  0  0  0  0
  1  2  2  0  0  0  0
  1  6  1  0  0  0  0
  2  3  1  0  0  0  0
  2  7  1  0  0  0  0
  3  4  2  0  0  0  0
  3 30  1  0  0  0  0
  4  5  1  0  0  0  0
  4 31  1  0  0  0  0
  5  6  2  0  0  0  0
  5 32  1  0  0  0  0
  6 18  1  0  0  0  0
  7  8  2  0  0  0  0
  7 12  1  0  0  0  0
  8  9  1  0  0  0  0
  8 33  1  0  0  0  0
  9 10  2  0  0  0  0
  9 20  1  0  0  0  0
 10 11  1  0  0  0  0
 10 13  1  0  0  0  0
 11 12  2  0  0  0  0
 11 34  1  0  0  0  0
 12 35  1  0  0  0  0
 13 14  1  0  0  0  0
 14 15  1  0  0  0  0
 14 36  1  0  0  0  0
 14 37  1  0  0  0  0
 15 16  1  0  0  0  0
 15 38  1  0  0  0  0
 15 39  1  0  0  0  0
 16 17  1  0  0  0  0
 16 40  1  0  0  0  0
 16 41  1  0  0  0  0
 17 27  1  0  0  0  0
 17 28  1  0  0  0  0
 18 19  3  0  0  0  0
 20 21  1  0  0  0  0
 20 22  1  0  0  0  0
 20 23  1  0  0  0  0
 24 25  1  0  0  0  0
 24 28  1  0  0  0  0
 24 42  1  0  0  0  0
 24 43  1  0  0  0  0
 25 26  1  0  0  0  0
 25 29  1  0  0  0  0
 25 53  1  0  0  0  0
 26 27  1  0  0  0  0
 26 44  1  0  0  0  0
 26 45  1  0  0  0  0
 27 46  1  0  0  0  0
 27 47  1  0  0  0  0
 28 48  1  0  0  0  0
 28 49  1  0  0  0  0
 29 50  1  0  0  0  0
 29 51  1  0  0  0  0
 29 52  1  0  0  0  0
M  CHG  1  25   1
M  END
$$$$
