94M
 OpenBabel04091914483D

 37 39  0  0  0  0  0  0  0  0999 V2000
    1.5865   34.8686   25.7769 N   0  0  0  0  0  0  0  0  0  0  0  0
    1.3021   34.2998   24.5927 C   0  0  0  0  0  0  0  0  0  0  0  0
    2.3608   33.7802   23.9314 N   0  0  0  0  0  0  0  0  0  0  0  0
    0.0814   34.1975   24.0267 N   0  0  0  0  0  0  0  0  0  0  0  0
   -0.8998   34.7445   24.7838 C   0  0  0  0  0  0  0  0  0  0  0  0
   -0.7367   35.3707   26.0165 C   0  0  0  0  0  0  0  0  0  0  0  0
    0.5661   35.4024   26.4771 C   0  0  0  0  0  0  0  0  0  0  0  0
    0.9339   36.1226   27.9702 Cl  0  0  0  0  0  0  0  0  0  0  0  0
   -1.9558   35.8198   26.4880 N   0  0  0  0  0  0  0  0  0  0  0  0
   -2.8422   35.4583   25.5821 C   0  0  0  0  0  0  0  0  0  0  0  0
   -2.2511   34.7963   24.5294 N   0  3  0  0  0  0  0  0  0  0  0  0
   -4.5331   29.5213   26.3734 C   0  0  0  0  0  0  0  0  0  0  0  0
   -7.1718   30.5607   24.7682 C   0  0  0  0  0  0  0  0  0  0  0  0
   -2.2662   31.3996   24.3737 C   0  0  0  0  0  0  0  0  0  0  0  0
   -6.2576   32.7549   23.9964 C   0  0  0  0  0  0  0  0  0  0  0  0
   -2.9491   34.2358   23.3817 C   0  0  0  0  0  0  0  0  0  0  0  0
   -5.2802   33.6321   23.6714 N   0  0  0  0  0  0  0  0  0  0  0  0
   -4.4270   29.7661   24.9678 O   0  0  0  0  0  0  0  0  0  0  0  0
   -6.0353   31.4756   24.4698 C   0  0  0  0  0  0  0  0  0  0  0  0
   -3.6656   31.9218   24.2474 C   0  0  0  0  0  0  0  0  0  0  0  0
   -3.9855   33.2124   23.7833 C   0  0  0  0  0  0  0  0  0  0  0  0
   -4.7122   31.0672   24.6135 C   0  0  0  0  0  0  0  0  0  0  0  0
    3.2718   33.8791   24.3567 H   0  0  0  0  0  0  0  0  0  0  0  0
    2.2087   33.3529   23.0384 H   0  0  0  0  0  0  0  0  0  0  0  0
   -3.9052   35.6209   25.6500 H   0  0  0  0  0  0  0  0  0  0  0  0
   -4.2933   28.4676   26.5489 H   0  0  0  0  0  0  0  0  0  0  0  0
   -5.5406   29.6757   26.7592 H   0  0  0  0  0  0  0  0  0  0  0  0
   -3.8333   30.1355   26.9457 H   0  0  0  0  0  0  0  0  0  0  0  0
   -8.1350   31.0673   24.6644 H   0  0  0  0  0  0  0  0  0  0  0  0
   -7.1254   30.2124   25.7998 H   0  0  0  0  0  0  0  0  0  0  0  0
   -7.1474   29.6953   24.0976 H   0  0  0  0  0  0  0  0  0  0  0  0
   -1.5197   32.1397   24.1064 H   0  0  0  0  0  0  0  0  0  0  0  0
   -2.1207   30.5354   23.7133 H   0  0  0  0  0  0  0  0  0  0  0  0
   -2.0739   31.0908   25.4068 H   0  0  0  0  0  0  0  0  0  0  0  0
   -7.2725   33.1279   23.8479 H   0  0  0  0  0  0  0  0  0  0  0  0
   -2.2174   33.8035   22.6944 H   0  0  0  0  0  0  0  0  0  0  0  0
   -3.4222   35.0808   22.8513 H   0  0  0  0  0  0  0  0  0  0  0  0
  1  2  2  0  0  0  0
  1  7  1  0  0  0  0
  2  3  1  0  0  0  0
  2  4  1  0  0  0  0
  3 23  1  0  0  0  0
  3 24  1  0  0  0  0
  4  5  2  0  0  0  0
  5  6  1  0  0  0  0
  5 11  1  0  0  0  0
  6  7  2  0  0  0  0
  6  9  1  0  0  0  0
  7  8  1  0  0  0  0
  9 10  1  0  0  0  0
 10 11  2  0  0  0  0
 10 25  1  0  0  0  0
 11 16  1  0  0  0  0
 12 18  1  0  0  0  0
 12 26  1  0  0  0  0
 12 27  1  0  0  0  0
 12 28  1  0  0  0  0
 13 19  1  0  0  0  0
 13 29  1  0  0  0  0
 13 30  1  0  0  0  0
 13 31  1  0  0  0  0
 14 20  1  0  0  0  0
 14 32  1  0  0  0  0
 14 33  1  0  0  0  0
 14 34  1  0  0  0  0
 15 17  2  0  0  0  0
 15 19  1  0  0  0  0
 15 35  1  0  0  0  0
 16 21  1  0  0  0  0
 16 36  1  0  0  0  0
 16 37  1  0  0  0  0
 17 21  1  0  0  0  0
 18 22  1  0  0  0  0
 19 22  2  0  0  0  0
 20 21  2  0  0  0  0
 20 22  1  0  0  0  0
M  CHG  1  11   1
M  END
$$$$
