99P
 OpenBabel04091914233D

 51 53  0  0  1  0  0  0  0  0999 V2000
   16.4061  -15.3074   23.0876 N   0  3  0  0  0  0  0  0  0  0  0  0
   17.7109  -14.5679   23.1511 C   0  0  1  0  0  0  0  0  0  0  0  0
   17.5176  -13.1656   22.5859 C   0  0  0  0  0  0  0  0  0  0  0  0
   16.5654  -12.4904   23.0046 O   0  0  0  0  0  0  0  0  0  0  0  0
   18.1846  -14.4985   24.6023 C   0  0  0  0  0  0  0  0  0  0  0  0
   19.6025  -13.9947   24.6954 C   0  0  0  0  0  0  0  0  0  0  0  0
   20.6657  -14.6729   24.0856 C   0  0  0  0  0  0  0  0  0  0  0  0
   19.8663  -12.8106   25.3943 C   0  0  0  0  0  0  0  0  0  0  0  0
   21.9613  -14.1615   24.1565 C   0  0  0  0  0  0  0  0  0  0  0  0
   21.1620  -12.3071   25.4774 C   0  0  0  0  0  0  0  0  0  0  0  0
   22.2103  -12.9817   24.8569 C   0  0  0  0  0  0  0  0  0  0  0  0
   18.3334  -12.7729   21.5602 N   0  0  0  0  0  0  0  0  0  0  0  0
   18.1830  -11.4294   20.9759 C   0  0  2  0  0  0  0  0  0  0  0  0
   16.7668  -11.3001   20.3985 C   0  0  0  0  0  0  0  0  0  0  0  0
   16.2761  -12.2025   19.7410 O   0  0  0  0  0  0  0  0  0  0  0  0
   19.1878  -11.4156   19.8238 C   0  0  0  0  0  0  0  0  0  0  0  0
   20.2499  -12.4106   20.2588 C   0  0  0  0  0  0  0  0  0  0  0  0
   19.4529  -13.4963   20.9496 C   0  0  0  0  0  0  0  0  0  0  0  0
   16.1053  -10.1238   20.6851 N   0  0  0  0  0  0  0  0  0  0  0  0
   14.7663   -9.8813   20.1872 C   0  0  0  0  0  0  0  0  0  0  0  0
   13.7142  -10.4409   21.0923 C   0  0  0  0  0  0  0  0  0  0  0  0
   12.9290   -9.6215   21.8926 C   0  0  0  0  0  0  0  0  0  0  0  0
   11.9724  -10.0745   22.7348 N   0  0  0  0  0  0  0  0  0  0  0  0
   11.7825  -11.4154   22.7763 C   0  0  0  0  0  0  0  0  0  0  0  0
   12.5148  -12.3101   22.0260 C   0  0  0  0  0  0  0  0  0  0  0  0
   13.4869  -11.8132   21.1741 C   0  0  0  0  0  0  0  0  0  0  0  0
   16.4771  -16.2548   23.4722 H   0  0  0  0  0  0  0  0  0  0  0  0
   15.6869  -14.7783   23.6051 H   0  0  0  0  0  0  0  0  0  0  0  0
   18.4054  -15.1487   22.5447 H   0  0  0  0  0  0  0  0  0  0  0  0
   18.1354  -15.4913   25.0672 H   0  0  0  0  0  0  0  0  0  0  0  0
   17.5220  -13.8425   25.1813 H   0  0  0  0  0  0  0  0  0  0  0  0
   20.5034  -15.5912   23.5252 H   0  0  0  0  0  0  0  0  0  0  0  0
   19.0610  -12.2678   25.8840 H   0  0  0  0  0  0  0  0  0  0  0  0
   22.7839  -14.6843   23.6734 H   0  0  0  0  0  0  0  0  0  0  0  0
   21.3562  -11.3899   26.0323 H   0  0  0  0  0  0  0  0  0  0  0  0
   23.2235  -12.5927   24.9273 H   0  0  0  0  0  0  0  0  0  0  0  0
   18.4185  -10.6705   21.7296 H   0  0  0  0  0  0  0  0  0  0  0  0
   19.6111  -10.4231   19.6489 H   0  0  0  0  0  0  0  0  0  0  0  0
   18.7268  -11.7502   18.8867 H   0  0  0  0  0  0  0  0  0  0  0  0
   20.9257  -11.9323   20.9799 H   0  0  0  0  0  0  0  0  0  0  0  0
   20.8343  -12.7897   19.4188 H   0  0  0  0  0  0  0  0  0  0  0  0
   19.0733  -14.2386   20.2347 H   0  0  0  0  0  0  0  0  0  0  0  0
   20.0541  -14.0301   21.6845 H   0  0  0  0  0  0  0  0  0  0  0  0
   16.5232   -9.4397   21.3000 H   0  0  0  0  0  0  0  0  0  0  0  0
   14.6656  -10.3268   19.1920 H   0  0  0  0  0  0  0  0  0  0  0  0
   14.6408   -8.7980   20.0791 H   0  0  0  0  0  0  0  0  0  0  0  0
   13.0649   -8.5435   21.8653 H   0  0  0  0  0  0  0  0  0  0  0  0
   11.0103  -11.7747   23.4550 H   0  0  0  0  0  0  0  0  0  0  0  0
   12.3293  -13.3761   22.0911 H   0  0  0  0  0  0  0  0  0  0  0  0
   14.0723  -12.4935   20.5650 H   0  0  0  0  0  0  0  0  0  0  0  0
   16.0772  -15.3610   22.1132 H   0  0  0  0  0  0  0  0  0  0  0  0
  1  2  1  0  0  0  0
  1 27  1  0  0  0  0
  1 28  1  0  0  0  0
  1 51  1  0  0  0  0
  2  3  1  0  0  0  0
  2  5  1  0  0  0  0
  2 29  1  6  0  0  0
  3  4  2  0  0  0  0
  3 12  1  0  0  0  0
  5  6  1  0  0  0  0
  5 30  1  0  0  0  0
  5 31  1  0  0  0  0
  6  7  2  0  0  0  0
  6  8  1  0  0  0  0
  7  9  1  0  0  0  0
  7 32  1  0  0  0  0
  8 10  2  0  0  0  0
  8 33  1  0  0  0  0
  9 11  2  0  0  0  0
  9 34  1  0  0  0  0
 10 11  1  0  0  0  0
 10 35  1  0  0  0  0
 11 36  1  0  0  0  0
 12 13  1  0  0  0  0
 12 18  1  0  0  0  0
 13 14  1  0  0  0  0
 13 16  1  0  0  0  0
 13 37  1  1  0  0  0
 14 15  2  0  0  0  0
 14 19  1  0  0  0  0
 16 17  1  0  0  0  0
 16 38  1  0  0  0  0
 16 39  1  0  0  0  0
 17 18  1  0  0  0  0
 17 40  1  0  0  0  0
 17 41  1  0  0  0  0
 18 42  1  0  0  0  0
 18 43  1  0  0  0  0
 19 20  1  0  0  0  0
 19 44  1  0  0  0  0
 20 21  1  0  0  0  0
 20 45  1  0  0  0  0
 20 46  1  0  0  0  0
 21 22  2  0  0  0  0
 21 26  1  0  0  0  0
 22 23  1  0  0  0  0
 22 47  1  0  0  0  0
 23 24  2  0  0  0  0
 24 25  1  0  0  0  0
 24 48  1  0  0  0  0
 25 26  2  0  0  0  0
 25 49  1  0  0  0  0
 26 50  1  0  0  0  0
M  CHG  1   1   1
M  END
$$$$
