9DX
 OpenBabel04091912353D

 35 36  0  0  1  0  0  0  0  0999 V2000
   -7.0290   17.7621   19.5353 O   0  0  0  0  0  0  0  0  0  0  0  0
   -7.7965   16.7585   19.4510 C   0  0  0  0  0  0  0  0  0  0  0  0
   -8.9224   16.6666   18.8883 O   0  0  0  0  0  0  0  0  0  0  0  0
   -7.2702   15.4597   20.1562 C   0  0  2  0  0  0  0  0  0  0  0  0
   -5.7965   15.2057   19.8372 C   0  0  0  0  0  0  0  0  0  0  0  0
   -5.4917   15.1589   18.3426 C   0  0  2  0  0  0  0  0  0  0  0  0
   -5.9365   13.8261   17.7617 N   0  3  0  0  0  0  0  0  0  0  0  0
   -3.9717   15.3754   18.1081 C   0  0  0  0  0  0  0  0  0  0  0  0
   -3.4282   16.3851   18.6054 O   0  0  0  0  0  0  0  0  0  0  0  0
   -3.4617   14.4092   17.4494 O   0  0  0  0  0  0  0  0  0  0  0  0
   -8.0038   14.2582   19.7641 O   0  0  0  0  0  0  0  0  0  0  0  0
   -8.8164   13.8551   20.8805 C   0  0  2  0  0  0  0  0  0  0  0  0
  -10.2792   13.6096   20.4925 C   0  0  2  0  0  0  0  0  0  0  0  0
  -10.7946   14.5205   19.5158 O   0  0  0  0  0  0  0  0  0  0  0  0
  -11.1895   13.7433   21.6975 C   0  0  0  0  0  0  0  0  0  0  0  0
  -11.0508   15.1374   22.3158 C   0  0  0  0  0  0  0  0  0  0  0  0
   -9.8316   15.7861   21.9640 O   0  0  0  0  0  0  0  0  0  0  0  0
   -8.7119   14.9046   21.9827 C   0  0  2  0  0  0  0  0  0  0  0  0
   -7.4584   15.6643   21.6603 C   0  0  0  0  0  0  0  0  0  0  0  0
   -5.4953   14.2528   20.3011 H   0  0  0  0  0  0  0  0  0  0  0  0
   -5.1953   15.9859   20.3207 H   0  0  0  0  0  0  0  0  0  0  0  0
   -6.0379   15.9052   17.7718 H   0  0  0  0  0  0  0  0  0  0  0  0
   -5.6494   13.8277   16.7855 H   0  0  0  0  0  0  0  0  0  0  0  0
   -5.3645   13.1052   18.2098 H   0  0  0  0  0  0  0  0  0  0  0  0
   -8.3713   12.9195   21.2480 H   0  0  0  0  0  0  0  0  0  0  0  0
  -10.3669   12.6057   20.0390 H   0  0  0  0  0  0  0  0  0  0  0  0
  -10.5367   15.4290   19.8049 H   0  0  0  0  0  0  0  0  0  0  0  0
  -10.9397   12.9839   22.4460 H   0  0  0  0  0  0  0  0  0  0  0  0
  -12.2348   13.5840   21.4065 H   0  0  0  0  0  0  0  0  0  0  0  0
  -11.1101   15.0876   23.4102 H   0  0  0  0  0  0  0  0  0  0  0  0
  -11.8686   15.7867   21.9747 H   0  0  0  0  0  0  0  0  0  0  0  0
   -8.6504   14.4473   22.9780 H   0  0  0  0  0  0  0  0  0  0  0  0
   -7.5319   16.7201   21.9460 H   0  0  0  0  0  0  0  0  0  0  0  0
   -6.6122   15.2380   22.2148 H   0  0  0  0  0  0  0  0  0  0  0  0
   -6.9447   13.6898   17.9104 H   0  0  0  0  0  0  0  0  0  0  0  0
  1  2  2  0  0  0  0
  2  3  1  0  0  0  0
  4  2  1  6  0  0  0
  4  5  1  0  0  0  0
  4 11  1  0  0  0  0
  4 19  1  0  0  0  0
  5  6  1  0  0  0  0
  5 20  1  0  0  0  0
  5 21  1  0  0  0  0
  6  7  1  0  0  0  0
  6  8  1  0  0  0  0
  6 22  1  6  0  0  0
  7 23  1  0  0  0  0
  7 24  1  0  0  0  0
  7 35  1  0  0  0  0
  8  9  2  0  0  0  0
  8 10  1  0  0  0  0
 11 12  1  0  0  0  0
 12 13  1  0  0  0  0
 12 18  1  0  0  0  0
 12 25  1  1  0  0  0
 13 14  1  0  0  0  0
 13 15  1  0  0  0  0
 13 26  1  6  0  0  0
 14 27  1  0  0  0  0
 15 16  1  0  0  0  0
 15 28  1  0  0  0  0
 15 29  1  0  0  0  0
 16 17  1  0  0  0  0
 16 30  1  0  0  0  0
 16 31  1  0  0  0  0
 17 18  1  0  0  0  0
 18 19  1  0  0  0  0
 18 32  1  1  0  0  0
 19 33  1  0  0  0  0
 19 34  1  0  0  0  0
M  CHG  1   7   1
M  END
$$$$
