9HI
 OpenBabel04091911123D

 79 82  0  0  1  0  0  0  0  0999 V2000
   14.4485    6.4926   45.4904 N   0  3  1  0  0  0  0  0  0  0  0  0
   10.9846    7.4812   51.3329 N   0  0  0  0  0  0  0  0  0  0  0  0
   14.6592    5.1931   45.9398 C   0  0  2  0  0  0  0  0  0  0  0  0
   15.4650    8.8664   45.8225 C   0  0  0  0  0  0  0  0  0  0  0  0
   13.3669    6.8297   44.5766 C   0  0  0  0  0  0  0  0  0  0  0  0
   13.7556    6.6297   43.1219 C   0  0  0  0  0  0  0  0  0  0  0  0
   12.9368    6.1083   40.8213 C   0  0  0  0  0  0  0  0  0  0  0  0
   14.2246    9.6798   46.2037 C   0  0  0  0  0  0  0  0  0  0  0  0
   12.2764    2.2954   46.2219 C   0  0  0  0  0  0  0  0  0  0  0  0
   15.7711    7.0684   51.3606 C   0  0  0  0  0  0  0  0  0  0  0  0
   14.5486    7.2740   52.0342 C   0  0  0  0  0  0  0  0  0  0  0  0
   14.1675    3.2787   44.4242 C   0  0  0  0  0  0  0  0  0  0  0  0
   17.5459    1.9501   47.1510 C   0  0  0  0  0  0  0  0  0  0  0  0
   13.5298    2.0642   44.1655 C   0  0  0  0  0  0  0  0  0  0  0  0
   14.7258    7.6133   49.3123 C   0  0  0  0  0  0  0  0  0  0  0  0
   17.4911    1.7803   48.5269 C   0  0  2  0  0  0  0  0  0  0  0  0
   12.0593    8.2779   53.1555 O   0  0  0  0  0  0  0  0  0  0  0  0
   12.1193    7.8298   52.0152 C   0  0  0  0  0  0  0  0  0  0  0  0
   13.4069    7.6164   51.3184 C   0  0  1  0  0  0  0  0  0  0  0  0
   13.4951    7.7919   49.9489 C   0  0  0  0  0  0  0  0  0  0  0  0
   15.8933    7.2251   49.9722 C   0  0  2  0  0  0  0  0  0  0  0  0
   17.0950    6.9386   49.4077 N   0  0  0  0  0  0  0  0  0  0  0  0
   17.5955    7.0474   47.8952 S   0  0  0  0  0  0  0  0  0  0  0  0
   17.9109    8.3899   47.4260 O   0  0  0  0  0  0  0  0  0  0  0  0
   18.5768    6.0379   47.5003 O   0  0  0  0  0  0  0  0  0  0  0  0
   16.2308    6.5638   46.8454 C   0  0  1  0  0  0  0  0  0  0  0  0
   15.7695    5.2201   46.7727 C   0  0  2  0  0  0  0  0  0  0  0  0
   16.3096    4.0180   47.3833 C   0  0  1  0  0  0  0  0  0  0  0  0
   16.9661    3.0802   46.5740 C   0  0  0  0  0  0  0  0  0  0  0  0
   16.2279    3.8123   48.7636 C   0  0  0  0  0  0  0  0  0  0  0  0
   16.8415    2.7019   49.3418 C   0  0  0  0  0  0  0  0  0  0  0  0
   18.0798    0.7136   49.0839 F   0  0  0  0  0  0  0  0  0  0  0  0
   15.3917    7.3610   46.0420 C   0  0  1  0  0  0  0  0  0  0  0  0
   15.9934    9.2142   44.4375 C   0  0  0  0  0  0  0  0  0  0  0  0
   13.8613    4.0142   45.5775 C   0  0  1  0  0  0  0  0  0  0  0  0
   12.5960    1.5800   45.0718 C   0  0  1  0  0  0  0  0  0  0  0  0
   12.9071    3.5154   46.4750 C   0  0  0  0  0  0  0  0  0  0  0  0
   12.0112    0.3933   44.8566 F   0  0  0  0  0  0  0  0  0  0  0  0
   12.5395    6.6367   42.2019 C   0  0  2  0  0  0  0  0  0  0  0  0
   12.0642    7.9802   42.0478 O   0  0  0  0  0  0  0  0  0  0  0  0
   13.0436    4.5762   40.8000 C   0  0  1  0  0  0  0  0  0  0  0  0
   11.7557    4.0731   41.1763 O   0  0  0  0  0  0  0  0  0  0  0  0
   13.4344    4.1107   39.4074 C   0  0  0  0  0  0  0  0  0  0  0  0
   13.8678    2.6519   39.4317 C   0  0  0  0  0  0  0  0  0  0  0  0
   14.9520    2.4165   40.0347 O   0  0  0  0  0  0  0  0  0  0  0  0
   13.1196    1.8696   38.7776 O   0  0  0  0  0  0  0  0  0  0  0  0
   11.0225    6.9312   50.4845 H   0  0  0  0  0  0  0  0  0  0  0  0
   10.1075    7.5590   51.8259 H   0  0  0  0  0  0  0  0  0  0  0  0
   16.2034    9.2692   46.5121 H   0  0  0  0  0  0  0  0  0  0  0  0
   13.0509    7.8521   44.7389 H   0  0  0  0  0  0  0  0  0  0  0  0
   12.5004    6.2171   44.8510 H   0  0  0  0  0  0  0  0  0  0  0  0
   14.3161    5.7010   43.0178 H   0  0  0  0  0  0  0  0  0  0  0  0
   14.4360    7.4225   42.8045 H   0  0  0  0  0  0  0  0  0  0  0  0
   13.8886    6.5612   40.5135 H   0  0  0  0  0  0  0  0  0  0  0  0
   12.1896    6.4366   40.0886 H   0  0  0  0  0  0  0  0  0  0  0  0
   14.4458   10.7504   46.1298 H   0  0  0  0  0  0  0  0  0  0  0  0
   13.9201    9.4927   47.2371 H   0  0  0  0  0  0  0  0  0  0  0  0
   13.3562    9.5103   45.5725 H   0  0  0  0  0  0  0  0  0  0  0  0
   11.5650    1.8824   46.9276 H   0  0  0  0  0  0  0  0  0  0  0  0
   16.6438    6.7727   51.9423 H   0  0  0  0  0  0  0  0  0  0  0  0
   14.5070    7.1448   53.1115 H   0  0  0  0  0  0  0  0  0  0  0  0
   14.9424    3.6192   43.7401 H   0  0  0  0  0  0  0  0  0  0  0  0
   18.0615    1.2250   46.5279 H   0  0  0  0  0  0  0  0  0  0  0  0
   13.7824    1.4944   43.2747 H   0  0  0  0  0  0  0  0  0  0  0  0
   14.7236    7.7868   48.2556 H   0  0  0  0  0  0  0  0  0  0  0  0
   12.6437    8.0819   49.3446 H   0  0  0  0  0  0  0  0  0  0  0  0
   17.0387    3.2435   45.5059 H   0  0  0  0  0  0  0  0  0  0  0  0
   15.7271    4.5362   49.3988 H   0  0  0  0  0  0  0  0  0  0  0  0
   16.8380    2.5727   50.4178 H   0  0  0  0  0  0  0  0  0  0  0  0
   16.8880    8.6266   44.1997 H   0  0  0  0  0  0  0  0  0  0  0  0
   16.2632   10.2728   44.3816 H   0  0  0  0  0  0  0  0  0  0  0  0
   15.2476    9.0375   43.6652 H   0  0  0  0  0  0  0  0  0  0  0  0
   12.6995    4.0505   47.3979 H   0  0  0  0  0  0  0  0  0  0  0  0
   11.7170    6.0485   42.6224 H   0  0  0  0  0  0  0  0  0  0  0  0
   11.6995    8.2592   42.9033 H   0  0  0  0  0  0  0  0  0  0  0  0
   13.7625    4.2241   41.5434 H   0  0  0  0  0  0  0  0  0  0  0  0
   11.1762    4.1686   40.4039 H   0  0  0  0  0  0  0  0  0  0  0  0
   14.2908    4.6907   39.0396 H   0  0  0  0  0  0  0  0  0  0  0  0
   12.6096    4.2472   38.6993 H   0  0  0  0  0  0  0  0  0  0  0  0
  1  3  1  0  0  0  0
  1  5  1  1  0  0  0
  1 33  1  0  0  0  0
  2 18  1  0  0  0  0
  2 47  1  0  0  0  0
  2 48  1  0  0  0  0
  3 27  1  0  0  0  0
  3 35  1  6  0  0  0
  4  8  1  0  0  0  0
  4 34  1  0  0  0  0
  4 49  1  0  0  0  0
  5  6  1  0  0  0  0
  5 50  1  0  0  0  0
  5 51  1  0  0  0  0
  6 39  1  0  0  0  0
  6 52  1  0  0  0  0
  6 53  1  0  0  0  0
  7 39  1  0  0  0  0
  7 41  1  0  0  0  0
  7 54  1  0  0  0  0
  7 55  1  0  0  0  0
  8 56  1  0  0  0  0
  8 57  1  0  0  0  0
  8 58  1  0  0  0  0
  9 36  1  0  0  0  0
  9 37  1  0  0  0  0
  9 59  1  0  0  0  0
 10 11  1  0  0  0  0
 10 21  1  0  0  0  0
 10 60  1  0  0  0  0
 11 19  1  0  0  0  0
 11 61  1  0  0  0  0
 12 14  1  0  0  0  0
 12 62  1  0  0  0  0
 13 16  1  0  0  0  0
 13 29  1  0  0  0  0
 13 63  1  0  0  0  0
 14 36  1  0  0  0  0
 14 64  1  0  0  0  0
 15 20  1  0  0  0  0
 15 21  1  0  0  0  0
 15 65  1  0  0  0  0
 16 31  1  0  0  0  0
 16 32  1  1  0  0  0
 17 18  2  0  0  0  0
 19 18  1  1  0  0  0
 19 20  1  0  0  0  0
 20 66  1  0  0  0  0
 21 22  1  6  0  0  0
 22 23  1  0  0  0  0
 23 24  2  0  0  0  0
 23 25  2  0  0  0  0
 26 23  1  1  0  0  0
 26 27  1  0  0  0  0
 26 33  1  0  0  0  0
 27 28  1  6  0  0  0
 28 29  1  1  0  0  0
 28 30  1  0  0  0  0
 29 67  1  0  0  0  0
 30 31  1  0  0  0  0
 30 68  1  0  0  0  0
 31 69  1  0  0  0  0
 33  4  1  1  0  0  0
 34 70  1  0  0  0  0
 34 71  1  0  0  0  0
 34 72  1  0  0  0  0
 35 12  1  1  0  0  0
 35 37  1  0  0  0  0
 36 38  1  1  0  0  0
 37 73  1  0  0  0  0
 39 40  1  0  0  0  0
 39 74  1  1  0  0  0
 40 75  1  0  0  0  0
 41 42  1  0  0  0  0
 41 43  1  0  0  0  0
 41 76  1  1  0  0  0
 42 77  1  0  0  0  0
 43 44  1  0  0  0  0
 43 78  1  0  0  0  0
 43 79  1  0  0  0  0
 44 45  2  0  0  0  0
 44 46  1  0  0  0  0
M  CHG  1   1   1
M  END
$$$$
