9OD
 OpenBabel04091911183D

 28 27  0  0  0  0  0  0  0  0999 V2000
   14.0719   -8.5669   -1.7992 O   0  0  0  0  0  0  0  0  0  0  0  0
   13.9611   -7.4022   -2.2315 C   0  0  0  0  0  0  0  0  0  0  0  0
   12.5973   -6.8207   -2.4178 C   0  0  0  0  0  0  0  0  0  0  0  0
   15.2127   -6.6064   -2.5612 C   0  0  0  0  0  0  0  0  0  0  0  0
   15.0354   -5.1747   -3.0502 C   0  0  0  0  0  0  0  0  0  0  0  0
   15.7539   -4.1829   -2.1419 C   0  0  0  0  0  0  0  0  0  0  0  0
   16.4893   -3.0693   -2.8849 C   0  0  0  0  0  0  0  0  0  0  0  0
   17.9632   -3.4256   -2.8576 C   0  0  0  0  0  0  0  0  0  0  0  0
   18.8751   -2.6231   -3.7107 C   0  0  0  0  0  0  0  0  0  0  0  0
   20.1158   -3.1138   -3.8236 C   0  0  0  0  0  0  0  0  0  0  0  0
   21.2428   -2.4330   -4.5799 C   0  0  0  0  0  0  0  0  0  0  0  0
   22.3718   -2.9344   -4.3844 O   0  0  0  0  0  0  0  0  0  0  0  0
   20.9034   -1.4382   -5.3017 O   0  0  0  0  0  0  0  0  0  0  0  0
   12.6190   -5.8109   -2.8030 H   0  0  0  0  0  0  0  0  0  0  0  0
   12.0727   -6.7791   -1.4576 H   0  0  0  0  0  0  0  0  0  0  0  0
   12.0313   -7.4117   -3.1439 H   0  0  0  0  0  0  0  0  0  0  0  0
   15.7616   -7.1698   -3.3184 H   0  0  0  0  0  0  0  0  0  0  0  0
   15.8110   -6.6032   -1.6382 H   0  0  0  0  0  0  0  0  0  0  0  0
   13.9982   -4.8626   -3.0773 H   0  0  0  0  0  0  0  0  0  0  0  0
   15.3937   -5.1046   -4.0829 H   0  0  0  0  0  0  0  0  0  0  0  0
   16.4800   -4.7292   -1.5333 H   0  0  0  0  0  0  0  0  0  0  0  0
   15.0229   -3.7320   -1.4610 H   0  0  0  0  0  0  0  0  0  0  0  0
   16.3361   -2.1127   -2.3690 H   0  0  0  0  0  0  0  0  0  0  0  0
   16.1332   -2.9722   -3.9149 H   0  0  0  0  0  0  0  0  0  0  0  0
   18.0600   -4.4742   -3.1733 H   0  0  0  0  0  0  0  0  0  0  0  0
   18.3196   -3.3472   -1.8209 H   0  0  0  0  0  0  0  0  0  0  0  0
   18.5840   -1.6961   -4.2037 H   0  0  0  0  0  0  0  0  0  0  0  0
   20.3607   -4.0538   -3.3202 H   0  0  0  0  0  0  0  0  0  0  0  0
  1  2  2  0  0  0  0
  2  3  1  0  0  0  0
  2  4  1  0  0  0  0
  3 14  1  0  0  0  0
  3 15  1  0  0  0  0
  3 16  1  0  0  0  0
  4  5  1  0  0  0  0
  4 17  1  0  0  0  0
  4 18  1  0  0  0  0
  5  6  1  0  0  0  0
  5 19  1  0  0  0  0
  5 20  1  0  0  0  0
  6  7  1  0  0  0  0
  6 21  1  0  0  0  0
  6 22  1  0  0  0  0
  7  8  1  0  0  0  0
  7 23  1  0  0  0  0
  7 24  1  0  0  0  0
  8  9  1  0  0  0  0
  8 25  1  0  0  0  0
  8 26  1  0  0  0  0
  9 10  2  0  0  0  0
  9 27  1  0  0  0  0
 10 11  1  0  0  0  0
 10 28  1  0  0  0  0
 11 12  2  0  0  0  0
 11 13  1  0  0  0  0
M  END
$$$$
