A4D
 OpenBabel04091913103D

 32 34  0  0  1  0  0  0  0  0999 V2000
   13.7187    9.6784   -5.3110 N   0  0  0  0  0  0  0  0  0  0  0  0
   12.7693    9.2977   -4.4233 C   0  0  0  0  0  0  0  0  0  0  0  0
   12.8237    9.3109   -3.0736 N   0  0  0  0  0  0  0  0  0  0  0  0
   14.0102    9.7839   -2.6503 C   0  0  0  0  0  0  0  0  0  0  0  0
   15.0646   10.2127   -3.4399 C   0  0  0  0  0  0  0  0  0  0  0  0
   14.8811   10.1577   -4.8286 C   0  0  0  0  0  0  0  0  0  0  0  0
   15.8519   10.5923   -5.7160 N   0  0  0  0  0  0  0  0  0  0  0  0
   16.1321   10.6222   -2.6667 N   0  0  0  0  0  0  0  0  0  0  0  0
   15.7241   10.4585   -1.4282 C   0  0  0  0  0  0  0  0  0  0  0  0
   14.4518    9.9539   -1.3659 N   0  3  0  0  0  0  0  0  0  0  0  0
   12.4913    8.0400    1.9039 O   0  0  0  0  0  0  0  0  0  0  0  0
   14.4050    7.2082    0.1494 O   0  0  0  0  0  0  0  0  0  0  0  0
   14.6245   10.4265    4.6484 S   0  0  0  0  0  0  0  0  0  0  0  0
   14.6544   10.9408    2.9018 C   0  0  0  0  0  0  0  0  0  0  0  0
   13.6309   10.7198    0.7151 O   0  0  0  0  0  0  0  0  0  0  0  0
   13.7694    8.6913    1.9942 C   0  0  1  0  0  0  0  0  0  0  0  0
   14.4812    8.5312    0.6660 C   0  0  2  0  0  0  0  0  0  0  0  0
   13.5810   10.2166    2.0816 C   0  0  1  0  0  0  0  0  0  0  0  0
   13.7463    9.5753   -0.1634 C   0  0  2  0  0  0  0  0  0  0  0  0
   11.8404    8.9378   -4.8587 H   0  0  0  0  0  0  0  0  0  0  0  0
   16.7719   10.7689   -5.3319 H   0  0  0  0  0  0  0  0  0  0  0  0
   15.7293   10.3515   -6.6860 H   0  0  0  0  0  0  0  0  0  0  0  0
   16.3130   10.6719   -0.5469 H   0  0  0  0  0  0  0  0  0  0  0  0
   12.0636    8.1328    2.7766 H   0  0  0  0  0  0  0  0  0  0  0  0
   13.4641    6.9479    0.1925 H   0  0  0  0  0  0  0  0  0  0  0  0
   15.6851   11.1409    5.0531 H   0  0  0  0  0  0  0  0  0  0  0  0
   15.6522   10.7574    2.4861 H   0  0  0  0  0  0  0  0  0  0  0  0
   14.4950   12.0224    2.8554 H   0  0  0  0  0  0  0  0  0  0  0  0
   14.3136    8.2290    2.8211 H   0  0  0  0  0  0  0  0  0  0  0  0
   15.5400    8.7855    0.7910 H   0  0  0  0  0  0  0  0  0  0  0  0
   12.5872   10.4715    2.4677 H   0  0  0  0  0  0  0  0  0  0  0  0
   12.7387    9.2451   -0.4434 H   0  0  0  0  0  0  0  0  0  0  0  0
  1  2  2  0  0  0  0
  1  6  1  0  0  0  0
  2  3  1  0  0  0  0
  2 20  1  0  0  0  0
  3  4  2  0  0  0  0
  4  5  1  0  0  0  0
  4 10  1  0  0  0  0
  5  6  2  0  0  0  0
  5  8  1  0  0  0  0
  6  7  1  0  0  0  0
  7 21  1  0  0  0  0
  7 22  1  0  0  0  0
  8  9  1  0  0  0  0
  9 10  2  0  0  0  0
  9 23  1  0  0  0  0
 10 19  1  0  0  0  0
 11 16  1  0  0  0  0
 11 24  1  0  0  0  0
 12 17  1  0  0  0  0
 12 25  1  0  0  0  0
 13 14  1  0  0  0  0
 13 26  1  0  0  0  0
 14 18  1  0  0  0  0
 14 27  1  0  0  0  0
 14 28  1  0  0  0  0
 15 18  1  0  0  0  0
 15 19  1  0  0  0  0
 16 17  1  0  0  0  0
 16 18  1  0  0  0  0
 16 29  1  1  0  0  0
 17 19  1  0  0  0  0
 17 30  1  1  0  0  0
 18 31  1  1  0  0  0
 19 32  1  6  0  0  0
M  CHG  1  10   1
M  END
$$$$
