A60
 OpenBabel04091914163D

 81 84  0  0  1  0  0  0  0  0999 V2000
   14.1186   35.0113   18.1867 N   0  0  0  0  0  0  0  0  0  0  0  0
   15.0416   34.4435   17.3335 C   0  0  0  0  0  0  0  0  0  0  0  0
   16.0851   35.1853   16.7573 C   0  0  0  0  0  0  0  0  0  0  0  0
   16.9953   34.5584   15.9078 C   0  0  0  0  0  0  0  0  0  0  0  0
   16.8519   33.1949   15.6566 C   0  0  0  0  0  0  0  0  0  0  0  0
   15.8052   32.4707   16.1931 C   0  0  0  0  0  0  0  0  0  0  0  0
   14.9143   33.0807   17.0442 C   0  0  0  0  0  0  0  0  0  0  0  0
   17.9118   32.3155   14.6061 S   0  0  0  0  0  0  0  0  0  0  0  0
   18.5561   33.2905   13.7153 O   0  0  0  0  0  0  0  0  0  0  0  0
   17.2048   31.2102   14.0450 O   0  0  0  0  0  0  0  0  0  0  0  0
   19.1500   31.7365   15.5801 N   0  0  0  0  0  0  0  0  0  0  0  0
   19.8443   32.7510   16.3802 C   0  0  0  0  0  0  0  0  0  0  0  0
   21.3549   32.5349   16.4034 C   0  0  0  0  0  0  0  0  0  0  0  0
   21.9551   32.6519   14.9975 C   0  0  0  0  0  0  0  0  0  0  0  0
   21.9763   33.5323   17.3920 C   0  0  0  0  0  0  0  0  0  0  0  0
   18.8920   30.4530   16.2352 C   0  0  0  0  0  0  0  0  0  0  0  0
   19.8428   29.3850   15.6936 C   0  0  1  0  0  0  0  0  0  0  0  0
   21.8570   34.9917   16.9825 C   0  0  0  0  0  0  0  0  0  0  0  0
   19.8073   28.2151   16.5276 O   0  0  0  0  0  0  0  0  0  0  0  0
   19.5321   28.9712   14.2437 C   0  0  1  0  0  0  0  0  0  0  0  0
   23.4106   32.2325   14.9018 C   0  0  0  0  0  0  0  0  0  0  0  0
   20.6479   28.1501   13.7776 N   0  0  0  0  0  0  0  0  0  0  0  0
   21.5488   28.5330   12.8425 C   0  0  0  0  0  0  0  0  0  0  0  0
   21.5580   29.6035   12.2590 O   0  0  0  0  0  0  0  0  0  0  0  0
   22.4101   27.5317   12.6296 O   0  0  0  0  0  0  0  0  0  0  0  0
   23.2802   27.6557   11.4840 C   0  0  1  0  0  0  0  0  0  0  0  0
   24.6029   27.0704   11.9202 C   0  0  0  0  0  0  0  0  0  0  0  0
   24.4428   25.6498   11.7918 O   0  0  0  0  0  0  0  0  0  0  0  0
   23.5229   25.4014   10.7217 C   0  0  1  0  0  0  0  0  0  0  0  0
   22.5326   24.4566   11.1326 O   0  0  0  0  0  0  0  0  0  0  0  0
   21.2650   25.1121   11.1847 C   0  0  0  0  0  0  0  0  0  0  0  0
   21.3714   26.3534   10.3260 C   0  0  0  0  0  0  0  0  0  0  0  0
   22.8358   26.7098   10.3740 C   0  0  1  0  0  0  0  0  0  0  0  0
   18.2296   28.1641   14.0987 C   0  0  0  0  0  0  0  0  0  0  0  0
   18.0612   26.4145   12.2509 C   0  0  0  0  0  0  0  0  0  0  0  0
   17.8683   26.0800   10.9055 C   0  0  0  0  0  0  0  0  0  0  0  0
   17.5833   27.0691    9.9719 C   0  0  0  0  0  0  0  0  0  0  0  0
   17.5060   28.3908   10.3799 C   0  0  0  0  0  0  0  0  0  0  0  0
   17.7001   28.7232   11.7191 C   0  0  0  0  0  0  0  0  0  0  0  0
   17.9810   27.7446   12.6695 C   0  0  0  0  0  0  0  0  0  0  0  0
   14.1744   35.9885   18.4229 H   0  0  0  0  0  0  0  0  0  0  0  0
   13.3758   34.4382   18.5681 H   0  0  0  0  0  0  0  0  0  0  0  0
   16.1726   36.2466   16.9666 H   0  0  0  0  0  0  0  0  0  0  0  0
   17.8084   35.1242   15.4639 H   0  0  0  0  0  0  0  0  0  0  0  0
   15.6779   31.4160   15.9600 H   0  0  0  0  0  0  0  0  0  0  0  0
   14.1063   32.5174   17.4840 H   0  0  0  0  0  0  0  0  0  0  0  0
   19.4480   32.7046   17.3979 H   0  0  0  0  0  0  0  0  0  0  0  0
   19.6361   33.7448   15.9750 H   0  0  0  0  0  0  0  0  0  0  0  0
   21.5493   31.5259   16.7793 H   0  0  0  0  0  0  0  0  0  0  0  0
   21.8778   33.6872   14.6585 H   0  0  0  0  0  0  0  0  0  0  0  0
   21.3820   32.0231   14.3119 H   0  0  0  0  0  0  0  0  0  0  0  0
   23.0363   33.2966   17.5088 H   0  0  0  0  0  0  0  0  0  0  0  0
   21.4859   33.4149   18.3655 H   0  0  0  0  0  0  0  0  0  0  0  0
   17.8573   30.1345   16.0865 H   0  0  0  0  0  0  0  0  0  0  0  0
   19.0433   30.5675   17.3089 H   0  0  0  0  0  0  0  0  0  0  0  0
   20.8650   29.7824   15.7092 H   0  0  0  0  0  0  0  0  0  0  0  0
   22.3256   35.6300   17.7384 H   0  0  0  0  0  0  0  0  0  0  0  0
   20.8068   35.2816   16.8870 H   0  0  0  0  0  0  0  0  0  0  0  0
   22.3615   35.1649   16.0285 H   0  0  0  0  0  0  0  0  0  0  0  0
   20.0827   28.4619   17.4278 H   0  0  0  0  0  0  0  0  0  0  0  0
   19.4679   29.8679   13.6243 H   0  0  0  0  0  0  0  0  0  0  0  0
   23.7590   32.3474   13.8677 H   0  0  0  0  0  0  0  0  0  0  0  0
   23.5255   31.1840   15.1946 H   0  0  0  0  0  0  0  0  0  0  0  0
   24.0367   32.8552   15.5470 H   0  0  0  0  0  0  0  0  0  0  0  0
   20.7557   27.2329   14.1804 H   0  0  0  0  0  0  0  0  0  0  0  0
   23.3758   28.6934   11.1339 H   0  0  0  0  0  0  0  0  0  0  0  0
   24.8293   27.3189   12.9626 H   0  0  0  0  0  0  0  0  0  0  0  0
   25.4343   27.3863   11.2813 H   0  0  0  0  0  0  0  0  0  0  0  0
   24.0669   24.9936    9.8563 H   0  0  0  0  0  0  0  0  0  0  0  0
   21.0323   25.3698   12.2250 H   0  0  0  0  0  0  0  0  0  0  0  0
   20.4969   24.4244   10.8172 H   0  0  0  0  0  0  0  0  0  0  0  0
   20.7348   27.1557   10.6987 H   0  0  0  0  0  0  0  0  0  0  0  0
   21.0661   26.1269    9.2956 H   0  0  0  0  0  0  0  0  0  0  0  0
   23.1756   27.1015    9.4082 H   0  0  0  0  0  0  0  0  0  0  0  0
   17.3868   28.7809   14.4269 H   0  0  0  0  0  0  0  0  0  0  0  0
   18.2699   27.2775   14.7393 H   0  0  0  0  0  0  0  0  0  0  0  0
   18.2782   25.6249   12.9613 H   0  0  0  0  0  0  0  0  0  0  0  0
   17.9460   25.0462   10.5831 H   0  0  0  0  0  0  0  0  0  0  0  0
   17.4168   26.8150    8.9310 H   0  0  0  0  0  0  0  0  0  0  0  0
   17.2977   29.1727    9.6631 H   0  0  0  0  0  0  0  0  0  0  0  0
   17.6310   29.7633   12.0244 H   0  0  0  0  0  0  0  0  0  0  0  0
  1  2  1  0  0  0  0
  1 41  1  0  0  0  0
  1 42  1  0  0  0  0
  2  3  2  0  0  0  0
  2  7  1  0  0  0  0
  3  4  1  0  0  0  0
  3 43  1  0  0  0  0
  4  5  2  0  0  0  0
  4 44  1  0  0  0  0
  5  6  1  0  0  0  0
  5  8  1  0  0  0  0
  6  7  2  0  0  0  0
  6 45  1  0  0  0  0
  7 46  1  0  0  0  0
  8  9  2  0  0  0  0
  8 10  2  0  0  0  0
  8 11  1  0  0  0  0
 11 12  1  0  0  0  0
 11 16  1  0  0  0  0
 12 13  1  0  0  0  0
 12 47  1  0  0  0  0
 12 48  1  0  0  0  0
 13 14  1  0  0  0  0
 13 15  1  0  0  0  0
 13 49  1  0  0  0  0
 14 21  1  0  0  0  0
 14 50  1  0  0  0  0
 14 51  1  0  0  0  0
 15 18  1  0  0  0  0
 15 52  1  0  0  0  0
 15 53  1  0  0  0  0
 16 17  1  0  0  0  0
 16 54  1  0  0  0  0
 16 55  1  0  0  0  0
 17 19  1  0  0  0  0
 17 20  1  0  0  0  0
 17 56  1  1  0  0  0
 18 57  1  0  0  0  0
 18 58  1  0  0  0  0
 18 59  1  0  0  0  0
 19 60  1  0  0  0  0
 20 22  1  0  0  0  0
 20 34  1  0  0  0  0
 20 61  1  6  0  0  0
 21 62  1  0  0  0  0
 21 63  1  0  0  0  0
 21 64  1  0  0  0  0
 22 23  1  0  0  0  0
 22 65  1  0  0  0  0
 23 24  2  0  0  0  0
 23 25  1  0  0  0  0
 25 26  1  0  0  0  0
 26 27  1  0  0  0  0
 26 33  1  0  0  0  0
 26 66  1  6  0  0  0
 27 28  1  0  0  0  0
 27 67  1  0  0  0  0
 27 68  1  0  0  0  0
 28 29  1  0  0  0  0
 29 30  1  0  0  0  0
 29 33  1  0  0  0  0
 29 69  1  6  0  0  0
 30 31  1  0  0  0  0
 31 32  1  0  0  0  0
 31 70  1  0  0  0  0
 31 71  1  0  0  0  0
 32 33  1  0  0  0  0
 32 72  1  0  0  0  0
 32 73  1  0  0  0  0
 33 74  1  6  0  0  0
 34 40  1  0  0  0  0
 34 75  1  0  0  0  0
 34 76  1  0  0  0  0
 35 36  2  0  0  0  0
 35 40  1  0  0  0  0
 35 77  1  0  0  0  0
 36 37  1  0  0  0  0
 36 78  1  0  0  0  0
 37 38  2  0  0  0  0
 37 79  1  0  0  0  0
 38 39  1  0  0  0  0
 38 80  1  0  0  0  0
 39 40  2  0  0  0  0
 39 81  1  0  0  0  0
M  END
$$$$
