A6D
 OpenBabel04091913113D

 48 51  0  0  1  0  0  0  0  0999 V2000
   13.6572    9.6152   -5.3636 N   0  0  0  0  0  0  0  0  0  0  0  0
   12.7022    9.2721   -4.4641 C   0  0  0  0  0  0  0  0  0  0  0  0
   12.7557    9.3434   -3.1211 N   0  0  0  0  0  0  0  0  0  0  0  0
   13.9364    9.8418   -2.7181 C   0  0  0  0  0  0  0  0  0  0  0  0
   14.9994   10.2376   -3.5142 C   0  0  0  0  0  0  0  0  0  0  0  0
   14.8326   10.0959   -4.8965 C   0  0  0  0  0  0  0  0  0  0  0  0
   15.8295   10.4170   -5.7876 N   0  0  0  0  0  0  0  0  0  0  0  0
   16.0533   10.6969   -2.7497 N   0  0  0  0  0  0  0  0  0  0  0  0
   15.6391   10.5787   -1.5103 C   0  0  0  0  0  0  0  0  0  0  0  0
   14.3762   10.0546   -1.4445 N   0  3  0  0  0  0  0  0  0  0  0  0
   12.4905   11.3163    9.6886 O   0  0  0  0  0  0  0  0  0  0  0  0
   12.3819    8.2157    1.8027 O   0  0  0  0  0  0  0  0  0  0  0  0
   14.2660    7.2947    0.0297 O   0  0  0  0  0  0  0  0  0  0  0  0
   14.2591   11.6307   10.9483 O   0  0  0  0  0  0  0  0  0  0  0  0
   16.2919    8.6032    8.9638 C   0  0  0  0  0  0  0  0  0  0  0  0
   15.8006    8.2034    7.7160 C   0  0  0  0  0  0  0  0  0  0  0  0
   15.6009    9.5476    9.7263 C   0  0  0  0  0  0  0  0  0  0  0  0
   13.8857    9.6436    8.0195 C   0  0  0  0  0  0  0  0  0  0  0  0
   14.0997    8.3185    5.8580 C   0  0  0  0  0  0  0  0  0  0  0  0
   14.8514   10.8863    2.7398 C   0  0  0  0  0  0  0  0  0  0  0  0
   13.6364   10.8283    0.6381 O   0  0  0  0  0  0  0  0  0  0  0  0
   13.1608    9.6378    5.0094 S   0  0  0  0  0  0  0  0  0  0  0  0
   14.6041   11.0407    4.5492 S   0  0  0  0  0  0  0  0  0  0  0  0
   14.6046    8.7397    7.2168 C   0  0  0  0  0  0  0  0  0  0  0  0
   14.3954   10.0634    9.2495 C   0  0  0  0  0  0  0  0  0  0  0  0
   13.6983    8.7815    1.8846 C   0  0  1  0  0  0  0  0  0  0  0  0
   14.3865    8.6016    0.5511 C   0  0  2  0  0  0  0  0  0  0  0  0
   13.6365   10.3176    1.9955 C   0  0  1  0  0  0  0  0  0  0  0  0
   13.6751    9.6890   -0.2437 C   0  0  2  0  0  0  0  0  0  0  0  0
   13.6607   11.0757   10.0141 N   0  0  0  0  0  0  0  0  0  0  0  0
   11.7780    8.8931   -4.8872 H   0  0  0  0  0  0  0  0  0  0  0  0
   16.6818   10.8183   -5.4221 H   0  0  0  0  0  0  0  0  0  0  0  0
   15.6321   10.3642   -6.7731 H   0  0  0  0  0  0  0  0  0  0  0  0
   16.2132   10.8342   -0.6253 H   0  0  0  0  0  0  0  0  0  0  0  0
   11.9372    8.3834    2.6557 H   0  0  0  0  0  0  0  0  0  0  0  0
   13.3156    7.0672    0.0536 H   0  0  0  0  0  0  0  0  0  0  0  0
   17.2271    8.1885    9.3318 H   0  0  0  0  0  0  0  0  0  0  0  0
   16.3696    7.4797    7.1315 H   0  0  0  0  0  0  0  0  0  0  0  0
   16.0093    9.8658   10.6822 H   0  0  0  0  0  0  0  0  0  0  0  0
   12.9399   10.0564    7.6701 H   0  0  0  0  0  0  0  0  0  0  0  0
   14.9223    8.0000    5.2074 H   0  0  0  0  0  0  0  0  0  0  0  0
   13.4299    7.4611    5.9817 H   0  0  0  0  0  0  0  0  0  0  0  0
   15.7501   10.2853    2.5575 H   0  0  0  0  0  0  0  0  0  0  0  0
   15.0879   11.8895    2.3656 H   0  0  0  0  0  0  0  0  0  0  0  0
   14.2279    8.2686    2.6927 H   0  0  0  0  0  0  0  0  0  0  0  0
   15.4556    8.8243    0.6654 H   0  0  0  0  0  0  0  0  0  0  0  0
   12.6959   10.6731    2.4295 H   0  0  0  0  0  0  0  0  0  0  0  0
   12.6465    9.4095   -0.5040 H   0  0  0  0  0  0  0  0  0  0  0  0
  1  2  2  0  0  0  0
  1  6  1  0  0  0  0
  2  3  1  0  0  0  0
  2 31  1  0  0  0  0
  3  4  2  0  0  0  0
  4  5  1  0  0  0  0
  4 10  1  0  0  0  0
  5  6  2  0  0  0  0
  5  8  1  0  0  0  0
  6  7  1  0  0  0  0
  7 32  1  0  0  0  0
  7 33  1  0  0  0  0
  8  9  1  0  0  0  0
  9 10  2  0  0  0  0
  9 34  1  0  0  0  0
 10 29  1  0  0  0  0
 11 30  2  0  0  0  0
 12 26  1  0  0  0  0
 12 35  1  0  0  0  0
 13 27  1  0  0  0  0
 13 36  1  0  0  0  0
 14 30  2  0  0  0  0
 15 16  2  0  0  0  0
 15 17  1  0  0  0  0
 15 37  1  0  0  0  0
 16 24  1  0  0  0  0
 16 38  1  0  0  0  0
 17 25  2  0  0  0  0
 17 39  1  0  0  0  0
 18 24  2  0  0  0  0
 18 25  1  0  0  0  0
 18 40  1  0  0  0  0
 19 22  1  0  0  0  0
 19 24  1  0  0  0  0
 19 41  1  0  0  0  0
 19 42  1  0  0  0  0
 20 23  1  0  0  0  0
 20 28  1  0  0  0  0
 20 43  1  0  0  0  0
 20 44  1  0  0  0  0
 21 28  1  0  0  0  0
 21 29  1  0  0  0  0
 22 23  1  0  0  0  0
 25 30  1  0  0  0  0
 26 27  1  0  0  0  0
 26 28  1  0  0  0  0
 26 45  1  1  0  0  0
 27 29  1  0  0  0  0
 27 46  1  1  0  0  0
 28 47  1  1  0  0  0
 29 48  1  6  0  0  0
M  CHG  1  10   1
M  END
$$$$
