A8S
 OpenBabel04091916323D

 38 38  0  0  1  0  0  0  0  0999 V2000
   38.3966  -40.8932   -6.7397 C   0  0  0  0  0  0  0  0  0  0  0  0
   37.3962  -41.4393   -7.7651 C   0  0  0  0  0  0  0  0  0  0  0  0
   37.1096  -42.7167   -8.0773 C   0  0  0  0  0  0  0  0  0  0  0  0
   37.7063  -43.8701   -7.4380 C   0  0  0  0  0  0  0  0  0  0  0  0
   37.5734  -45.1388   -7.8561 C   0  0  0  0  0  0  0  0  0  0  0  0
   36.1195  -42.9660   -9.1788 C   0  0  0  0  0  0  0  0  0  0  0  0
   38.2648  -46.3264   -7.2293 C   0  0  1  0  0  0  0  0  0  0  0  0
   39.2965  -45.9000   -6.3453 O   0  0  0  0  0  0  0  0  0  0  0  0
   37.2478  -47.1061   -6.4259 C   0  0  0  0  0  0  0  0  0  0  0  0
   36.5867  -48.1579   -6.9280 C   0  0  0  0  0  0  0  0  0  0  0  0
   36.8265  -48.6161   -8.3337 C   0  0  0  0  0  0  0  0  0  0  0  0
   36.1467  -49.5453   -8.7750 O   0  0  0  0  0  0  0  0  0  0  0  0
   37.8835  -47.9437   -9.1649 C   0  0  0  0  0  0  0  0  0  0  0  0
   38.8746  -41.7246   -5.9087 O   0  0  0  0  0  0  0  0  0  0  0  0
   38.9348  -47.2352   -8.3066 C   0  0  0  0  0  0  0  0  0  0  0  0
   38.6324  -39.6668   -6.8366 O   0  0  0  0  0  0  0  0  0  0  0  0
   36.9884  -46.6413   -5.0148 C   0  0  0  0  0  0  0  0  0  0  0  0
   39.8341  -48.2991   -7.6425 C   0  0  0  0  0  0  0  0  0  0  0  0
   39.8094  -46.3972   -9.2529 C   0  0  0  0  0  0  0  0  0  0  0  0
   36.8803  -40.6576   -8.3192 H   0  0  0  0  0  0  0  0  0  0  0  0
   38.3121  -43.7159   -6.5509 H   0  0  0  0  0  0  0  0  0  0  0  0
   36.9574  -45.3373   -8.7286 H   0  0  0  0  0  0  0  0  0  0  0  0
   35.7300  -42.0295   -9.5820 H   0  0  0  0  0  0  0  0  0  0  0  0
   35.2669  -43.5482   -8.8084 H   0  0  0  0  0  0  0  0  0  0  0  0
   36.5938  -43.5030  -10.0081 H   0  0  0  0  0  0  0  0  0  0  0  0
   39.8809  -45.3025   -6.8441 H   0  0  0  0  0  0  0  0  0  0  0  0
   35.8702  -48.7054   -6.3516 H   0  0  0  0  0  0  0  0  0  0  0  0
   37.3833  -47.2300   -9.8293 H   0  0  0  0  0  0  0  0  0  0  0  0
   38.3667  -48.6948   -9.7975 H   0  0  0  0  0  0  0  0  0  0  0  0
   36.2413  -47.2709   -4.5199 H   0  0  0  0  0  0  0  0  0  0  0  0
   36.6170  -45.6134   -5.0075 H   0  0  0  0  0  0  0  0  0  0  0  0
   37.9016  -46.6893   -4.4141 H   0  0  0  0  0  0  0  0  0  0  0  0
   40.5978  -47.8349   -7.0113 H   0  0  0  0  0  0  0  0  0  0  0  0
   40.3452  -48.9027   -8.3982 H   0  0  0  0  0  0  0  0  0  0  0  0
   39.2523  -48.9801   -7.0137 H   0  0  0  0  0  0  0  0  0  0  0  0
   39.2063  -45.6345   -9.7566 H   0  0  0  0  0  0  0  0  0  0  0  0
   40.2544  -47.0228  -10.0313 H   0  0  0  0  0  0  0  0  0  0  0  0
   40.6135  -45.8928   -8.7106 H   0  0  0  0  0  0  0  0  0  0  0  0
  1  2  1  0  0  0  0
  1 14  2  0  0  0  0
  1 16  1  0  0  0  0
  2  3  2  0  0  0  0
  2 20  1  0  0  0  0
  3  4  1  0  0  0  0
  3  6  1  0  0  0  0
  4  5  2  0  0  0  0
  4 21  1  0  0  0  0
  5 22  1  0  0  0  0
  6 23  1  0  0  0  0
  6 24  1  0  0  0  0
  6 25  1  0  0  0  0
  7  5  1  6  0  0  0
  7  8  1  0  0  0  0
  7  9  1  0  0  0  0
  7 15  1  0  0  0  0
  8 26  1  0  0  0  0
  9 10  2  0  0  0  0
  9 17  1  0  0  0  0
 10 11  1  0  0  0  0
 10 27  1  0  0  0  0
 11 12  2  0  0  0  0
 11 13  1  0  0  0  0
 13 15  1  0  0  0  0
 13 28  1  0  0  0  0
 13 29  1  0  0  0  0
 15 18  1  0  0  0  0
 15 19  1  0  0  0  0
 17 30  1  0  0  0  0
 17 31  1  0  0  0  0
 17 32  1  0  0  0  0
 18 33  1  0  0  0  0
 18 34  1  0  0  0  0
 18 35  1  0  0  0  0
 19 36  1  0  0  0  0
 19 37  1  0  0  0  0
 19 38  1  0  0  0  0
M  END
$$$$
