A92
 OpenBabel04091913323D

 45 48  0  0  1  0  0  0  0  0999 V2000
   28.0289    9.0196   27.6177 F   0  0  0  0  0  0  0  0  0  0  0  0
   23.0860    7.5362   24.0331 C   0  0  0  0  0  0  0  0  0  0  0  0
   26.4784   12.3208   27.5566 C   0  0  0  0  0  0  0  0  0  0  0  0
   22.7758    8.7463   23.4029 C   0  0  0  0  0  0  0  0  0  0  0  0
   27.3377   13.0176   28.3911 C   0  0  0  0  0  0  0  0  0  0  0  0
   23.9968    7.4734   25.0919 C   0  0  0  0  0  0  0  0  0  0  0  0
   28.6632   11.0071   28.6759 C   0  0  0  0  0  0  0  0  0  0  0  0
   26.6954   10.9661   27.2831 C   0  0  0  0  0  0  0  0  0  0  0  0
   23.3727    9.9467   23.8099 C   0  0  0  0  0  0  0  0  0  0  0  0
   28.4439   12.3660   28.9458 C   0  0  0  0  0  0  0  0  0  0  0  0
   24.3010    9.8933   24.8708 C   0  0  0  0  0  0  0  0  0  0  0  0
   24.5817    8.6724   25.4776 C   0  0  0  0  0  0  0  0  0  0  0  0
   27.7895   10.3179   27.8523 C   0  0  0  0  0  0  0  0  0  0  0  0
   25.7671   10.2967   26.3981 C   0  0  0  0  0  0  0  0  0  0  0  0
   23.0275   11.2151   23.1214 C   0  0  0  0  0  0  0  0  0  0  0  0
   29.7752   13.6108   32.2803 C   0  0  0  0  0  0  0  0  0  0  0  0
   30.1976   15.0191   31.8612 C   0  0  0  0  0  0  0  0  0  0  0  0
   28.7550   13.0484   31.3031 C   0  0  0  0  0  0  0  0  0  0  0  0
   30.7029   15.0509   30.4243 C   0  0  0  0  0  0  0  0  0  0  0  0
   29.3612   13.0511   29.9040 C   0  0  2  0  0  0  0  0  0  0  0  0
   25.0381   10.8921   25.4752 N   0  0  0  0  0  0  0  0  0  0  0  0
   25.5043    8.9561   26.4386 N   0  3  0  0  0  0  0  0  0  0  0  0
   29.6479   14.4731   29.5468 N   0  3  0  0  0  0  0  0  0  0  0  0
   23.6946   12.3275   23.5478 N   0  0  0  0  0  0  0  0  0  0  0  0
   22.1977   11.2701   22.2309 O   0  0  0  0  0  0  0  0  0  0  0  0
   22.6120    6.6232   23.6870 H   0  0  0  0  0  0  0  0  0  0  0  0
   25.6177   12.8293   27.1225 H   0  0  0  0  0  0  0  0  0  0  0  0
   22.0619    8.7567   22.5810 H   0  0  0  0  0  0  0  0  0  0  0  0
   27.1051   14.0569   28.6040 H   0  0  0  0  0  0  0  0  0  0  0  0
   24.2316    6.5360   25.5834 H   0  0  0  0  0  0  0  0  0  0  0  0
   29.5012   10.4662   29.1123 H   0  0  0  0  0  0  0  0  0  0  0  0
   29.3545   13.6210   33.2892 H   0  0  0  0  0  0  0  0  0  0  0  0
   30.6548   12.9548   32.2911 H   0  0  0  0  0  0  0  0  0  0  0  0
   30.9789   15.3839   32.5331 H   0  0  0  0  0  0  0  0  0  0  0  0
   29.3357   15.6920   31.9569 H   0  0  0  0  0  0  0  0  0  0  0  0
   27.8433   13.6630   31.3216 H   0  0  0  0  0  0  0  0  0  0  0  0
   28.4596   12.0357   31.6009 H   0  0  0  0  0  0  0  0  0  0  0  0
   31.6028   14.4406   30.2934 H   0  0  0  0  0  0  0  0  0  0  0  0
   30.8933   16.0690   30.0783 H   0  0  0  0  0  0  0  0  0  0  0  0
   30.3319   12.5373   29.8890 H   0  0  0  0  0  0  0  0  0  0  0  0
   25.9098    8.2878   27.0805 H   0  0  0  0  0  0  0  0  0  0  0  0
   28.7884   15.0279   29.6463 H   0  0  0  0  0  0  0  0  0  0  0  0
   23.5008   13.2200   23.1233 H   0  0  0  0  0  0  0  0  0  0  0  0
   24.3893   12.2532   24.2865 H   0  0  0  0  0  0  0  0  0  0  0  0
   29.9136   14.5351   28.5547 H   0  0  0  0  0  0  0  0  0  0  0  0
  1 13  1  0  0  0  0
  2  4  2  0  0  0  0
  2  6  1  0  0  0  0
  2 26  1  0  0  0  0
  3  5  2  0  0  0  0
  3  8  1  0  0  0  0
  3 27  1  0  0  0  0
  4  9  1  0  0  0  0
  4 28  1  0  0  0  0
  5 10  1  0  0  0  0
  5 29  1  0  0  0  0
  6 12  2  0  0  0  0
  6 30  1  0  0  0  0
  7 10  2  0  0  0  0
  7 13  1  0  0  0  0
  7 31  1  0  0  0  0
  8 13  2  0  0  0  0
  8 14  1  0  0  0  0
  9 11  2  0  0  0  0
  9 15  1  0  0  0  0
 10 20  1  0  0  0  0
 11 12  1  0  0  0  0
 11 21  1  0  0  0  0
 12 22  1  0  0  0  0
 14 21  1  0  0  0  0
 14 22  2  0  0  0  0
 15 24  1  0  0  0  0
 15 25  2  0  0  0  0
 16 17  1  0  0  0  0
 16 18  1  0  0  0  0
 16 32  1  0  0  0  0
 16 33  1  0  0  0  0
 17 19  1  0  0  0  0
 17 34  1  0  0  0  0
 17 35  1  0  0  0  0
 18 20  1  0  0  0  0
 18 36  1  0  0  0  0
 18 37  1  0  0  0  0
 19 23  1  0  0  0  0
 19 38  1  0  0  0  0
 19 39  1  0  0  0  0
 20 23  1  0  0  0  0
 20 40  1  1  0  0  0
 22 41  1  0  0  0  0
 23 42  1  0  0  0  0
 23 45  1  0  0  0  0
 24 43  1  0  0  0  0
 24 44  1  0  0  0  0
M  CHG  2  22   1  23   1
M  END
$$$$
