ABQ
 OpenBabel04091915063D

 58 62  0  0  1  0  0  0  0  0999 V2000
   41.6225   27.6007   28.9359 C   0  0  0  0  0  0  0  0  0  0  0  0
   40.0672   25.7392   29.1144 C   0  0  0  0  0  0  0  0  0  0  0  0
   41.1640   28.0790   30.1482 C   0  0  0  0  0  0  0  0  0  0  0  0
   39.6267   26.2279   30.3498 C   0  0  0  0  0  0  0  0  0  0  0  0
   37.3959   30.0980   26.9974 C   0  0  0  0  0  0  0  0  0  0  0  0
   39.3202   29.0074   26.4527 C   0  0  0  0  0  0  0  0  0  0  0  0
   35.4047   26.5855   28.5966 C   0  0  0  0  0  0  0  0  0  0  0  0
   31.0232   26.2573   29.0636 C   0  0  0  0  0  0  0  0  0  0  0  0
   33.3196   27.4137   28.3381 C   0  0  0  0  0  0  0  0  0  0  0  0
   34.7099   27.6607   28.0605 C   0  0  0  0  0  0  0  0  0  0  0  0
   41.0705   26.4326   28.4136 C   0  0  0  0  0  0  0  0  0  0  0  0
   40.1895   27.3865   30.8342 C   0  0  0  0  0  0  0  0  0  0  0  0
   36.7422   28.8736   27.0598 C   0  0  0  0  0  0  0  0  0  0  0  0
   33.2372   26.1735   28.9576 C   0  0  0  0  0  0  0  0  0  0  0  0
   38.6813   27.7760   26.4511 C   0  0  0  0  0  0  0  0  0  0  0  0
   32.0972   28.0740   28.1173 C   0  0  0  0  0  0  0  0  0  0  0  0
   35.2822   28.8003   27.3236 C   0  0  0  0  0  0  0  0  0  0  0  0
   41.6999   24.5195   26.8968 C   0  0  0  0  0  0  0  0  0  0  0  0
   40.8878   25.3348   24.8748 C   0  0  0  0  0  0  0  0  0  0  0  0
   41.5702   26.0138   27.0590 C   0  0  1  0  0  0  0  0  0  0  0  0
   40.7122   26.4600   25.8771 C   0  0  2  0  0  0  0  0  0  0  0  0
   36.2306   24.2653   30.1941 C   0  0  0  0  0  0  0  0  0  0  0  0
   34.5852   23.3655   28.5190 C   0  0  0  0  0  0  0  0  0  0  0  0
   34.8065   24.3543   29.6545 C   0  0  0  0  0  0  0  0  0  0  0  0
   38.7152   30.2022   26.6996 N   0  0  0  0  0  0  0  0  0  0  0  0
   32.1183   25.5310   29.3346 N   0  0  0  0  0  0  0  0  0  0  0  0
   30.9519   27.4681   28.4906 N   0  0  0  0  0  0  0  0  0  0  0  0
   37.3762   27.7026   26.7628 N   0  0  0  0  0  0  0  0  0  0  0  0
   34.5091   25.6903   29.1260 N   0  3  0  0  0  0  0  0  0  0  0  0
   31.9843   29.3240   27.5569 N   0  0  0  0  0  0  0  0  0  0  0  0
   39.2918   26.5840   26.1747 N   0  0  0  0  0  0  0  0  0  0  0  0
   34.5928   29.7231   26.9156 O   0  0  0  0  0  0  0  0  0  0  0  0
   41.5735   24.2461   25.5037 O   0  0  0  0  0  0  0  0  0  0  0  0
   39.7936   27.8625   32.0254 F   0  0  0  0  0  0  0  0  0  0  0  0
   42.3969   28.1366   28.3868 H   0  0  0  0  0  0  0  0  0  0  0  0
   39.6059   24.8422   28.7085 H   0  0  0  0  0  0  0  0  0  0  0  0
   41.5763   28.9914   30.5673 H   0  0  0  0  0  0  0  0  0  0  0  0
   38.8563   25.6977   30.9022 H   0  0  0  0  0  0  0  0  0  0  0  0
   36.8746   31.0374   27.1929 H   0  0  0  0  0  0  0  0  0  0  0  0
   40.3841   29.0780   26.2347 H   0  0  0  0  0  0  0  0  0  0  0  0
   36.4689   26.3898   28.5836 H   0  0  0  0  0  0  0  0  0  0  0  0
   30.0755   25.8135   29.3604 H   0  0  0  0  0  0  0  0  0  0  0  0
   40.9171   23.9714   27.4250 H   0  0  0  0  0  0  0  0  0  0  0  0
   42.6592   24.1488   27.2775 H   0  0  0  0  0  0  0  0  0  0  0  0
   41.4558   25.6696   24.0057 H   0  0  0  0  0  0  0  0  0  0  0  0
   39.9126   24.9734   24.5323 H   0  0  0  0  0  0  0  0  0  0  0  0
   42.5829   26.4330   26.9264 H   0  0  0  0  0  0  0  0  0  0  0  0
   41.0885   27.3981   25.4533 H   0  0  0  0  0  0  0  0  0  0  0  0
   36.4422   23.2862   30.6316 H   0  0  0  0  0  0  0  0  0  0  0  0
   36.4004   25.0308   30.9593 H   0  0  0  0  0  0  0  0  0  0  0  0
   36.9511   24.4280   29.3858 H   0  0  0  0  0  0  0  0  0  0  0  0
   33.5491   23.4176   28.1628 H   0  0  0  0  0  0  0  0  0  0  0  0
   34.7944   22.3387   28.8243 H   0  0  0  0  0  0  0  0  0  0  0  0
   35.2355   23.6275   27.6768 H   0  0  0  0  0  0  0  0  0  0  0  0
   34.1076   24.1359   30.4778 H   0  0  0  0  0  0  0  0  0  0  0  0
   31.0649   29.7204   27.4409 H   0  0  0  0  0  0  0  0  0  0  0  0
   32.8126   29.8144   27.2328 H   0  0  0  0  0  0  0  0  0  0  0  0
   38.7032   25.7494   26.1470 H   0  0  0  0  0  0  0  0  0  0  0  0
  1  3  2  0  0  0  0
  1 11  1  0  0  0  0
  1 35  1  0  0  0  0
  2  4  1  0  0  0  0
  2 11  2  0  0  0  0
  2 36  1  0  0  0  0
  3 12  1  0  0  0  0
  3 37  1  0  0  0  0
  4 12  2  0  0  0  0
  4 38  1  0  0  0  0
  5 13  2  0  0  0  0
  5 25  1  0  0  0  0
  5 39  1  0  0  0  0
  6 15  1  0  0  0  0
  6 25  2  0  0  0  0
  6 40  1  0  0  0  0
  7 10  2  0  0  0  0
  7 29  1  0  0  0  0
  7 41  1  0  0  0  0
  8 26  1  0  0  0  0
  8 27  2  0  0  0  0
  8 42  1  0  0  0  0
  9 10  1  0  0  0  0
  9 14  1  0  0  0  0
  9 16  2  0  0  0  0
 10 17  1  0  0  0  0
 11 20  1  0  0  0  0
 12 34  1  0  0  0  0
 13 17  1  0  0  0  0
 13 28  1  0  0  0  0
 14 26  1  0  0  0  0
 14 29  2  0  0  0  0
 15 28  2  0  0  0  0
 15 31  1  0  0  0  0
 16 27  1  0  0  0  0
 16 30  1  0  0  0  0
 17 32  2  0  0  0  0
 18 20  1  0  0  0  0
 18 33  1  0  0  0  0
 18 43  1  0  0  0  0
 18 44  1  0  0  0  0
 19 21  1  0  0  0  0
 19 33  1  0  0  0  0
 19 45  1  0  0  0  0
 19 46  1  0  0  0  0
 20 21  1  0  0  0  0
 20 47  1  6  0  0  0
 21 31  1  0  0  0  0
 21 48  1  6  0  0  0
 22 24  1  0  0  0  0
 22 49  1  0  0  0  0
 22 50  1  0  0  0  0
 22 51  1  0  0  0  0
 23 24  1  0  0  0  0
 23 52  1  0  0  0  0
 23 53  1  0  0  0  0
 23 54  1  0  0  0  0
 24 29  1  0  0  0  0
 24 55  1  0  0  0  0
 30 56  1  0  0  0  0
 30 57  1  0  0  0  0
 31 58  1  0  0  0  0
M  CHG  1  29   1
M  END
$$$$
