ABU
 OpenBabel04091913123D

 16 15  0  0  0  0  0  0  0  0999 V2000
   23.2586   20.8514   16.1232 N   0  3  0  0  0  0  0  0  0  0  0  0
   23.2412   19.4830   16.7311 C   0  0  0  0  0  0  0  0  0  0  0  0
   23.0447   19.5663   18.2376 C   0  0  0  0  0  0  0  0  0  0  0  0
   23.8057   18.4560   18.9661 C   0  0  0  0  0  0  0  0  0  0  0  0
   23.1998   17.0564   19.0490 C   0  0  0  0  0  0  0  0  0  0  0  0
   23.2394   16.5140   20.1798 O   0  0  0  0  0  0  0  0  0  0  0  0
   22.7685   16.6354   17.9223 O   0  0  0  0  0  0  0  0  0  0  0  0
   23.3850   20.7728   15.1051 H   0  0  0  0  0  0  0  0  0  0  0  0
   22.3792   21.3532   16.2980 H   0  0  0  0  0  0  0  0  0  0  0  0
   24.2040   19.0451   16.4530 H   0  0  0  0  0  0  0  0  0  0  0  0
   22.4180   18.9565   16.2448 H   0  0  0  0  0  0  0  0  0  0  0  0
   21.9713   19.5127   18.4700 H   0  0  0  0  0  0  0  0  0  0  0  0
   23.4038   20.5285   18.6237 H   0  0  0  0  0  0  0  0  0  0  0  0
   23.9895   18.7952   19.9916 H   0  0  0  0  0  0  0  0  0  0  0  0
   24.7875   18.3257   18.4987 H   0  0  0  0  0  0  0  0  0  0  0  0
   24.0329   21.4128   16.4954 H   0  0  0  0  0  0  0  0  0  0  0  0
  1  2  1  0  0  0  0
  1  8  1  0  0  0  0
  1  9  1  0  0  0  0
  1 16  1  0  0  0  0
  2  3  1  0  0  0  0
  2 10  1  0  0  0  0
  2 11  1  0  0  0  0
  3  4  1  0  0  0  0
  3 12  1  0  0  0  0
  3 13  1  0  0  0  0
  4  5  1  0  0  0  0
  4 14  1  0  0  0  0
  4 15  1  0  0  0  0
  5  6  2  0  0  0  0
  5  7  1  0  0  0  0
M  CHG  1   1   1
M  END
$$$$
