ABV
 OpenBabel04091913483D

 16 17  0  0  0  0  0  0  0  0999 V2000
  -29.5487  -17.5224    8.9756 C   0  0  0  0  0  0  0  0  0  0  0  0
  -30.4351  -19.8757   11.6411 N   0  0  0  0  0  0  0  0  0  0  0  0
  -31.7013  -19.2386    9.4900 S   0  0  0  0  0  0  0  0  0  0  0  0
  -28.3330  -17.0075    9.4305 C   0  0  0  0  0  0  0  0  0  0  0  0
  -32.4800  -20.9734   11.3129 N   0  0  0  0  0  0  0  0  0  0  0  0
  -27.7826  -17.4334   10.6365 C   0  0  0  0  0  0  0  0  0  0  0  0
  -28.4341  -18.4003   11.4147 C   0  0  0  0  0  0  0  0  0  0  0  0
  -29.6662  -18.9272   10.9828 C   0  0  0  0  0  0  0  0  0  0  0  0
  -30.1975  -18.4704    9.7758 C   0  0  0  0  0  0  0  0  0  0  0  0
  -31.5244  -20.1103   10.9490 C   0  0  0  0  0  0  0  0  0  0  0  0
  -29.9801  -17.2001    8.0352 H   0  0  0  0  0  0  0  0  0  0  0  0
  -27.8171  -16.2612    8.8315 H   0  0  0  0  0  0  0  0  0  0  0  0
  -32.3840  -21.5153   12.1579 H   0  0  0  0  0  0  0  0  0  0  0  0
  -33.2997  -21.1189   10.7436 H   0  0  0  0  0  0  0  0  0  0  0  0
  -26.8389  -17.0120   10.9763 H   0  0  0  0  0  0  0  0  0  0  0  0
  -27.9960  -18.7402   12.3504 H   0  0  0  0  0  0  0  0  0  0  0  0
  1  4  2  0  0  0  0
  1  9  1  0  0  0  0
  1 11  1  0  0  0  0
  2  8  1  0  0  0  0
  2 10  2  0  0  0  0
  3  9  1  0  0  0  0
  3 10  1  0  0  0  0
  4  6  1  0  0  0  0
  4 12  1  0  0  0  0
  5 10  1  0  0  0  0
  5 13  1  0  0  0  0
  5 14  1  0  0  0  0
  6  7  2  0  0  0  0
  6 15  1  0  0  0  0
  7  8  1  0  0  0  0
  7 16  1  0  0  0  0
  8  9  2  0  0  0  0
M  END
$$$$
