ACA
 OpenBabel04091913273D

 22 21  0  0  0  0  0  0  0  0999 V2000
    8.2298   11.9847    4.0013 C   0  0  0  0  0  0  0  0  0  0  0  0
    7.7339   12.5665    3.0298 O   0  0  0  0  0  0  0  0  0  0  0  0
    8.2467   10.7414    4.3053 O   0  0  0  0  0  0  0  0  0  0  0  0
    8.8792   12.8960    5.0327 C   0  0  0  0  0  0  0  0  0  0  0  0
    9.5427   14.0696    4.3035 C   0  0  0  0  0  0  0  0  0  0  0  0
   10.0702   15.1523    5.2566 C   0  0  0  0  0  0  0  0  0  0  0  0
   10.8382   14.5253    6.4315 C   0  0  0  0  0  0  0  0  0  0  0  0
   10.9289   15.3409    7.6876 C   0  0  0  0  0  0  0  0  0  0  0  0
   11.9825   14.7929    8.6175 N   0  3  0  0  0  0  0  0  0  0  0  0
    9.6260   12.3093    5.5859 H   0  0  0  0  0  0  0  0  0  0  0  0
    8.1511   13.2750    5.7618 H   0  0  0  0  0  0  0  0  0  0  0  0
    8.8294   14.5357    3.6128 H   0  0  0  0  0  0  0  0  0  0  0  0
   10.3576   13.6868    3.6771 H   0  0  0  0  0  0  0  0  0  0  0  0
    9.2215   15.7538    5.6000 H   0  0  0  0  0  0  0  0  0  0  0  0
   10.7479   15.8187    4.6979 H   0  0  0  0  0  0  0  0  0  0  0  0
   11.8298   14.2701    6.0647 H   0  0  0  0  0  0  0  0  0  0  0  0
   10.3035   13.6277    6.7497 H   0  0  0  0  0  0  0  0  0  0  0  0
    9.9947   15.2779    8.2549 H   0  0  0  0  0  0  0  0  0  0  0  0
   11.2286   16.3580    7.4709 H   0  0  0  0  0  0  0  0  0  0  0  0
   12.0282   15.3638    9.4803 H   0  0  0  0  0  0  0  0  0  0  0  0
   11.7981   13.8200    8.9117 H   0  0  0  0  0  0  0  0  0  0  0  0
   12.9250   14.8070    8.1986 H   0  0  0  0  0  0  0  0  0  0  0  0
  1  4  1  0  0  0  0
  1  3  2  0  0  0  0
  1  2  1  0  0  0  0
  4  5  1  0  0  0  0
  4 10  1  0  0  0  0
  4 11  1  0  0  0  0
  5  6  1  0  0  0  0
  5 12  1  0  0  0  0
  5 13  1  0  0  0  0
  6  7  1  0  0  0  0
  6 14  1  0  0  0  0
  6 15  1  0  0  0  0
  7  8  1  0  0  0  0
  7 16  1  0  0  0  0
  7 17  1  0  0  0  0
  8  9  1  0  0  0  0
  8 18  1  0  0  0  0
  8 19  1  0  0  0  0
  9 20  1  0  0  0  0
  9 21  1  0  0  0  0
  9 22  1  0  0  0  0
M  CHG  1   9   1
M  END
$$$$
