ACP
 OpenBabel04091910493D

 45 47  0  0  1  0  0  0  0  0999 V2000
   73.5548   16.2783   46.0758 P   0  0  0  0  0  0  0  0  0  0  0  0
   72.5534   15.5646   47.0059 O   0  0  0  0  0  0  0  0  0  0  0  0
   72.8739   16.9615   44.9090 O   0  0  0  0  0  0  0  0  0  0  0  0
   74.5701   17.1777   46.7579 O   0  0  0  0  0  0  0  0  0  0  0  0
   75.5729   13.7502   46.2671 P   0  0  2  0  0  0  0  0  0  0  0  0
   74.6929   12.5955   46.6949 O   0  0  0  0  0  0  0  0  0  0  0  0
   76.4423   14.5195   47.2350 O   0  0  0  0  0  0  0  0  0  0  0  0
   74.5831   14.8895   45.1940 C   0  0  0  0  0  0  0  0  0  0  0  0
   77.7946   12.1099   45.6915 P   0  0  1  0  0  0  0  0  0  0  0  0
   78.7873   12.6721   46.7028 O   0  0  0  0  0  0  0  0  0  0  0  0
   77.3603   10.6638   45.7460 O   0  0  0  0  0  0  0  0  0  0  0  0
   76.6211   13.1167   45.1952 O   0  0  0  0  0  0  0  0  0  0  0  0
   78.6556   12.1646   44.3107 O   0  0  0  0  0  0  0  0  0  0  0  0
   79.1886   13.4215   43.9396 C   0  0  0  0  0  0  0  0  0  0  0  0
   79.8175   13.2105   42.5704 C   0  0  1  0  0  0  0  0  0  0  0  0
   80.8622   12.1931   42.6455 O   0  0  0  0  0  0  0  0  0  0  0  0
   78.7958   12.7117   41.5482 C   0  0  1  0  0  0  0  0  0  0  0  0
   78.1280   13.7669   40.8524 O   0  0  0  0  0  0  0  0  0  0  0  0
   79.6582   11.8877   40.6098 C   0  0  1  0  0  0  0  0  0  0  0  0
   80.3452   12.7209   39.6495 O   0  0  0  0  0  0  0  0  0  0  0  0
   80.6581   11.2494   41.5680 C   0  0  2  0  0  0  0  0  0  0  0  0
   80.2466    9.9345   42.0514 N   0  3  0  0  0  0  0  0  0  0  0  0
   80.0006    9.5399   43.3452 C   0  0  0  0  0  0  0  0  0  0  0  0
   79.6717    8.2653   43.4160 N   0  0  0  0  0  0  0  0  0  0  0  0
   79.6447    7.8249   42.1159 C   0  0  0  0  0  0  0  0  0  0  0  0
   79.3293    6.5668   41.5509 C   0  0  0  0  0  0  0  0  0  0  0  0
   78.9768    5.4502   42.2986 N   0  0  0  0  0  0  0  0  0  0  0  0
   79.4361    6.4245   40.2104 N   0  0  0  0  0  0  0  0  0  0  0  0
   79.8396    7.4915   39.4887 C   0  0  0  0  0  0  0  0  0  0  0  0
   80.1705    8.7270   39.9142 N   0  0  0  0  0  0  0  0  0  0  0  0
   80.0358    8.8349   41.2480 C   0  0  0  0  0  0  0  0  0  0  0  0
   75.2143   15.4146   44.4575 H   0  0  0  0  0  0  0  0  0  0  0  0
   73.8561   14.3124   44.6030 H   0  0  0  0  0  0  0  0  0  0  0  0
   79.9342   13.7543   44.6646 H   0  0  0  0  0  0  0  0  0  0  0  0
   78.3870   14.1667   43.8776 H   0  0  0  0  0  0  0  0  0  0  0  0
   80.2748   14.1511   42.2398 H   0  0  0  0  0  0  0  0  0  0  0  0
   78.0383   12.0589   42.0006 H   0  0  0  0  0  0  0  0  0  0  0  0
   77.5649   14.2022   41.5321 H   0  0  0  0  0  0  0  0  0  0  0  0
   79.0701   11.1765   40.0269 H   0  0  0  0  0  0  0  0  0  0  0  0
   79.6391   13.2878   39.2830 H   0  0  0  0  0  0  0  0  0  0  0  0
   81.6399   11.1118   41.0985 H   0  0  0  0  0  0  0  0  0  0  0  0
   80.0679   10.2141   44.1921 H   0  0  0  0  0  0  0  0  0  0  0  0
   78.6139    4.6634   41.7932 H   0  0  0  0  0  0  0  0  0  0  0  0
   78.7105    5.6302   43.2601 H   0  0  0  0  0  0  0  0  0  0  0  0
   79.9230    7.3184   38.4176 H   0  0  0  0  0  0  0  0  0  0  0  0
  1  2  2  0  0  0  0
  1  3  1  0  0  0  0
  1  4  1  0  0  0  0
  1  8  1  0  0  0  0
  5  6  2  1  0  0  0
  5  7  1  0  0  0  0
  5  8  1  0  0  0  0
  5 12  1  0  0  0  0
  8 32  1  0  0  0  0
  8 33  1  0  0  0  0
  9 10  2  1  0  0  0
  9 11  1  0  0  0  0
  9 12  1  0  0  0  0
  9 13  1  0  0  0  0
 13 14  1  0  0  0  0
 14 15  1  0  0  0  0
 14 34  1  0  0  0  0
 14 35  1  0  0  0  0
 15 16  1  0  0  0  0
 15 17  1  0  0  0  0
 15 36  1  6  0  0  0
 16 21  1  0  0  0  0
 17 18  1  0  0  0  0
 17 19  1  0  0  0  0
 17 37  1  1  0  0  0
 18 38  1  0  0  0  0
 19 20  1  0  0  0  0
 19 21  1  0  0  0  0
 19 39  1  6  0  0  0
 20 40  1  0  0  0  0
 21 22  1  0  0  0  0
 21 41  1  6  0  0  0
 22 23  2  0  0  0  0
 22 31  1  0  0  0  0
 23 24  1  0  0  0  0
 23 42  1  0  0  0  0
 24 25  1  0  0  0  0
 25 26  2  0  0  0  0
 25 31  1  0  0  0  0
 26 27  1  0  0  0  0
 26 28  1  0  0  0  0
 27 43  1  0  0  0  0
 27 44  1  0  0  0  0
 28 29  2  0  0  0  0
 29 30  1  0  0  0  0
 29 45  1  0  0  0  0
 30 31  2  0  0  0  0
M  CHG  1  22   1
M  END
$$$$
