ADP
 OpenBabel04091913063D

 39 41  0  0  1  0  0  0  0  0999 V2000
  -40.1456    6.9371    0.1557 P   0  0  0  0  0  0  0  0  0  0  0  0
  -39.0054    6.7334    1.1591 O   0  0  0  0  0  0  0  0  0  0  0  0
  -39.6778    7.7346   -1.0647 O   0  0  0  0  0  0  0  0  0  0  0  0
  -40.8588    5.6411   -0.2035 O   0  0  0  0  0  0  0  0  0  0  0  0
  -42.7852    7.5635    1.1547 P   0  0  2  0  0  0  0  0  0  0  0  0
  -43.0268    6.5883    2.2944 O   0  0  0  0  0  0  0  0  0  0  0  0
  -43.6119    7.5257   -0.1193 O   0  0  0  0  0  0  0  0  0  0  0  0
  -41.2280    7.9040    0.9124 O   0  0  0  0  0  0  0  0  0  0  0  0
  -43.3086    8.9911    1.8328 O   0  0  0  0  0  0  0  0  0  0  0  0
  -44.7029    8.9977    2.1708 C   0  0  0  0  0  0  0  0  0  0  0  0
  -45.2330   10.4313    2.0713 C   0  0  1  0  0  0  0  0  0  0  0  0
  -46.6949   10.5682    1.7685 O   0  0  0  0  0  0  0  0  0  0  0  0
  -45.0712   11.2042    3.3716 C   0  0  1  0  0  0  0  0  0  0  0  0
  -43.8347   11.8529    3.6045 O   0  0  0  0  0  0  0  0  0  0  0  0
  -46.0943   12.2814    3.2013 C   0  0  1  0  0  0  0  0  0  0  0  0
  -45.5237   13.5839    2.9960 O   0  0  0  0  0  0  0  0  0  0  0  0
  -46.9328   11.9718    1.9690 C   0  0  2  0  0  0  0  0  0  0  0  0
  -48.3082   12.4285    2.2902 N   0  3  0  0  0  0  0  0  0  0  0  0
  -49.5140   12.1075    1.7220 C   0  0  0  0  0  0  0  0  0  0  0  0
  -50.5304   12.7218    2.3361 N   0  0  0  0  0  0  0  0  0  0  0  0
  -49.9250   13.5169    3.2879 C   0  0  0  0  0  0  0  0  0  0  0  0
  -50.4111   14.3345    4.3609 C   0  0  0  0  0  0  0  0  0  0  0  0
  -51.7590   14.5465    4.5618 N   0  0  0  0  0  0  0  0  0  0  0  0
  -49.5478   14.9158    5.2181 N   0  0  0  0  0  0  0  0  0  0  0  0
  -48.2389   14.7634    5.0040 C   0  0  0  0  0  0  0  0  0  0  0  0
  -47.7085   14.1385    3.9598 N   0  0  0  0  0  0  0  0  0  0  0  0
  -48.5751   13.4299    3.2098 C   0  0  0  0  0  0  0  0  0  0  0  0
  -44.8089    8.6016    3.1880 H   0  0  0  0  0  0  0  0  0  0  0  0
  -45.2877    8.3474    1.5112 H   0  0  0  0  0  0  0  0  0  0  0  0
  -44.6604   10.9594    1.2967 H   0  0  0  0  0  0  0  0  0  0  0  0
  -45.3419   10.5988    4.2506 H   0  0  0  0  0  0  0  0  0  0  0  0
  -43.8245   12.5919    2.9606 H   0  0  0  0  0  0  0  0  0  0  0  0
  -46.6938   12.2010    4.1186 H   0  0  0  0  0  0  0  0  0  0  0  0
  -46.3052   14.1765    2.9349 H   0  0  0  0  0  0  0  0  0  0  0  0
  -46.6262   12.5352    1.0871 H   0  0  0  0  0  0  0  0  0  0  0  0
  -49.5926   11.4252    0.8983 H   0  0  0  0  0  0  0  0  0  0  0  0
  -52.0139   15.1791    5.3162 H   0  0  0  0  0  0  0  0  0  0  0  0
  -52.4178   14.1714    3.9283 H   0  0  0  0  0  0  0  0  0  0  0  0
  -47.5481   15.1710    5.7277 H   0  0  0  0  0  0  0  0  0  0  0  0
  1  2  2  0  0  0  0
  1  3  1  0  0  0  0
  1  4  1  0  0  0  0
  1  8  1  0  0  0  0
  5  6  2  1  0  0  0
  5  7  1  0  0  0  0
  5  8  1  0  0  0  0
  5  9  1  0  0  0  0
  9 10  1  0  0  0  0
 10 11  1  0  0  0  0
 10 28  1  0  0  0  0
 10 29  1  0  0  0  0
 11 12  1  0  0  0  0
 11 13  1  0  0  0  0
 11 30  1  6  0  0  0
 12 17  1  0  0  0  0
 13 14  1  0  0  0  0
 13 15  1  0  0  0  0
 13 31  1  1  0  0  0
 14 32  1  0  0  0  0
 15 16  1  0  0  0  0
 15 17  1  0  0  0  0
 15 33  1  1  0  0  0
 16 34  1  0  0  0  0
 17 18  1  0  0  0  0
 17 35  1  6  0  0  0
 18 19  2  0  0  0  0
 18 27  1  0  0  0  0
 19 20  1  0  0  0  0
 19 36  1  0  0  0  0
 20 21  1  0  0  0  0
 21 22  2  0  0  0  0
 21 27  1  0  0  0  0
 22 23  1  0  0  0  0
 22 24  1  0  0  0  0
 23 37  1  0  0  0  0
 23 38  1  0  0  0  0
 24 25  2  0  0  0  0
 25 26  1  0  0  0  0
 25 39  1  0  0  0  0
 26 27  2  0  0  0  0
M  CHG  1  18   1
M  END
$$$$
