AED
 OpenBabel04091911053D

 38 39  0  0  0  0  0  0  0  0999 V2000
  -22.2404   40.0103   93.2250 C   0  0  0  0  0  0  0  0  0  0  0  0
  -21.9002   43.0970   91.8021 C   0  0  0  0  0  0  0  0  0  0  0  0
  -21.9532   41.4453   89.8126 C   0  0  0  0  0  0  0  0  0  0  0  0
  -19.5492   39.3787   92.7823 C   0  0  0  0  0  0  0  0  0  0  0  0
  -21.6099   39.0636   94.0236 C   0  0  0  0  0  0  0  0  0  0  0  0
  -22.3958   44.1669   90.8400 C   0  0  0  0  0  0  0  0  0  0  0  0
  -18.1100   39.0354   92.4917 C   0  0  0  0  0  0  0  0  0  0  0  0
  -17.2741   38.9922   93.7671 C   0  0  0  0  0  0  0  0  0  0  0  0
  -23.5435   40.3250   93.4633 O   0  0  0  0  0  0  0  0  0  0  0  0
  -20.2742   38.7352   93.7909 C   0  0  0  0  0  0  0  0  0  0  0  0
  -15.8498   38.7105   93.4453 N   0  3  0  0  0  0  0  0  0  0  0  0
  -20.2039   40.3373   91.9855 C   0  0  0  0  0  0  0  0  0  0  0  0
  -21.5623   40.6544   92.1842 C   0  0  0  0  0  0  0  0  0  0  0  0
  -22.2550   41.6853   91.3098 C   0  0  0  0  0  0  0  0  0  0  0  0
  -21.7305   43.9629   89.4894 C   0  0  0  0  0  0  0  0  0  0  0  0
  -22.1713   42.6364   88.8863 C   0  0  0  0  0  0  0  0  0  0  0  0
  -22.3335   43.2680   92.7953 H   0  0  0  0  0  0  0  0  0  0  0  0
  -20.8128   43.2003   91.9164 H   0  0  0  0  0  0  0  0  0  0  0  0
  -22.5650   40.6018   89.4650 H   0  0  0  0  0  0  0  0  0  0  0  0
  -20.9207   41.1247   89.6588 H   0  0  0  0  0  0  0  0  0  0  0  0
  -22.1483   38.5849   94.8368 H   0  0  0  0  0  0  0  0  0  0  0  0
  -22.1603   45.1616   91.2309 H   0  0  0  0  0  0  0  0  0  0  0  0
  -23.4874   44.1073   90.7361 H   0  0  0  0  0  0  0  0  0  0  0  0
  -17.6799   39.7804   91.8086 H   0  0  0  0  0  0  0  0  0  0  0  0
  -18.0723   38.0718   91.9698 H   0  0  0  0  0  0  0  0  0  0  0  0
  -17.5914   38.1855   94.4345 H   0  0  0  0  0  0  0  0  0  0  0  0
  -17.3033   39.9426   94.3076 H   0  0  0  0  0  0  0  0  0  0  0  0
  -24.0480   39.4942   93.4480 H   0  0  0  0  0  0  0  0  0  0  0  0
  -19.8216   37.9776   94.4219 H   0  0  0  0  0  0  0  0  0  0  0  0
  -15.2857   38.6696   94.3056 H   0  0  0  0  0  0  0  0  0  0  0  0
  -15.7381   37.8159   92.9614 H   0  0  0  0  0  0  0  0  0  0  0  0
  -19.6408   40.8352   91.2015 H   0  0  0  0  0  0  0  0  0  0  0  0
  -23.3418   41.5743   91.4161 H   0  0  0  0  0  0  0  0  0  0  0  0
  -20.6394   43.9778   89.6078 H   0  0  0  0  0  0  0  0  0  0  0  0
  -21.9915   44.7815   88.8108 H   0  0  0  0  0  0  0  0  0  0  0  0
  -23.2322   42.6953   88.6208 H   0  0  0  0  0  0  0  0  0  0  0  0
  -21.6197   42.4627   87.9560 H   0  0  0  0  0  0  0  0  0  0  0  0
  -15.4436   39.4475   92.8557 H   0  0  0  0  0  0  0  0  0  0  0  0
  1  5  2  0  0  0  0
  1  9  1  0  0  0  0
  1 13  1  0  0  0  0
  2  6  1  0  0  0  0
  2 14  1  0  0  0  0
  2 17  1  0  0  0  0
  2 18  1  0  0  0  0
  3 14  1  0  0  0  0
  3 16  1  0  0  0  0
  3 19  1  0  0  0  0
  3 20  1  0  0  0  0
  4  7  1  0  0  0  0
  4 10  2  0  0  0  0
  4 12  1  0  0  0  0
  5 10  1  0  0  0  0
  5 21  1  0  0  0  0
  6 15  1  0  0  0  0
  6 22  1  0  0  0  0
  6 23  1  0  0  0  0
  7  8  1  0  0  0  0
  7 24  1  0  0  0  0
  7 25  1  0  0  0  0
  8 11  1  0  0  0  0
  8 26  1  0  0  0  0
  8 27  1  0  0  0  0
  9 28  1  0  0  0  0
 10 29  1  0  0  0  0
 11 30  1  0  0  0  0
 11 31  1  0  0  0  0
 11 38  1  0  0  0  0
 12 13  2  0  0  0  0
 12 32  1  0  0  0  0
 13 14  1  0  0  0  0
 14 33  1  0  0  0  0
 15 16  1  0  0  0  0
 15 34  1  0  0  0  0
 15 35  1  0  0  0  0
 16 36  1  0  0  0  0
 16 37  1  0  0  0  0
M  CHG  1  11   1
M  END
$$$$
