AEF
 OpenBabel04091911043D

 22 22  0  0  0  0  0  0  0  0999 V2000
  -18.4418   39.8923   92.6990 C   0  0  0  0  0  0  0  0  0  0  0  0
  -21.8012   41.5941   93.2811 C   0  0  0  0  0  0  0  0  0  0  0  0
  -21.9487   39.3210   94.0909 C   0  0  0  0  0  0  0  0  0  0  0  0
  -17.6220   39.3898   93.8846 C   0  0  0  0  0  0  0  0  0  0  0  0
  -22.5250   40.5644   93.8685 C   0  0  0  0  0  0  0  0  0  0  0  0
  -23.8160   40.8189   94.2159 O   0  0  0  0  0  0  0  0  0  0  0  0
  -20.6328   39.0984   93.6955 C   0  0  0  0  0  0  0  0  0  0  0  0
  -20.4882   41.3722   92.8827 C   0  0  0  0  0  0  0  0  0  0  0  0
  -19.8770   40.1259   93.0973 C   0  0  0  0  0  0  0  0  0  0  0  0
  -16.1837   39.3079   93.5322 N   0  3  0  0  0  0  0  0  0  0  0  0
  -18.4162   39.1698   91.8737 H   0  0  0  0  0  0  0  0  0  0  0  0
  -18.0052   40.8238   92.3170 H   0  0  0  0  0  0  0  0  0  0  0  0
  -22.2721   42.5575   93.1179 H   0  0  0  0  0  0  0  0  0  0  0  0
  -22.5167   38.5288   94.5760 H   0  0  0  0  0  0  0  0  0  0  0  0
  -17.9142   38.3795   94.1918 H   0  0  0  0  0  0  0  0  0  0  0  0
  -17.6946   40.0607   94.7480 H   0  0  0  0  0  0  0  0  0  0  0  0
  -24.3503   40.0577   93.9295 H   0  0  0  0  0  0  0  0  0  0  0  0
  -20.2111   38.1088   93.8682 H   0  0  0  0  0  0  0  0  0  0  0  0
  -19.9416   42.1890   92.4039 H   0  0  0  0  0  0  0  0  0  0  0  0
  -15.6367   38.9675   94.3290 H   0  0  0  0  0  0  0  0  0  0  0  0
  -16.0175   38.6652   92.7434 H   0  0  0  0  0  0  0  0  0  0  0  0
  -15.8035   40.2281   93.2727 H   0  0  0  0  0  0  0  0  0  0  0  0
  1  4  1  0  0  0  0
  1  9  1  0  0  0  0
  1 11  1  0  0  0  0
  1 12  1  0  0  0  0
  2  5  2  0  0  0  0
  2  8  1  0  0  0  0
  2 13  1  0  0  0  0
  3  5  1  0  0  0  0
  3  7  2  0  0  0  0
  3 14  1  0  0  0  0
  4 10  1  0  0  0  0
  4 15  1  0  0  0  0
  4 16  1  0  0  0  0
  5  6  1  0  0  0  0
  6 17  1  0  0  0  0
  7  9  1  0  0  0  0
  7 18  1  0  0  0  0
  8  9  2  0  0  0  0
  8 19  1  0  0  0  0
 10 20  1  0  0  0  0
 10 21  1  0  0  0  0
 10 22  1  0  0  0  0
M  CHG  1  10   1
M  END
$$$$
