AEH
 OpenBabel04091911053D

 28 28  0  0  0  0  0  0  0  0999 V2000
  -21.8823   42.5794   89.8547 C   0  0  0  0  0  0  0  0  0  0  0  0
  -18.9756   40.4461   91.1384 C   0  0  0  0  0  0  0  0  0  0  0  0
  -20.9821   39.8297   92.3494 C   0  0  0  0  0  0  0  0  0  0  0  0
  -21.9566   42.2595   88.3692 C   0  0  0  0  0  0  0  0  0  0  0  0
  -17.5020   40.2771   90.8879 C   0  0  0  0  0  0  0  0  0  0  0  0
  -15.4300   39.9920   92.1986 N   0  3  0  0  0  0  0  0  0  0  0  0
  -23.0376   40.9342   91.8726 O   0  0  0  0  0  0  0  0  0  0  0  0
  -21.7029   40.7733   91.6208 C   0  0  0  0  0  0  0  0  0  0  0  0
  -19.6240   39.6652   92.1088 C   0  0  0  0  0  0  0  0  0  0  0  0
  -16.6726   40.7989   92.0630 C   0  0  0  0  0  0  0  0  0  0  0  0
  -19.7187   41.3967   90.4144 C   0  0  0  0  0  0  0  0  0  0  0  0
  -21.0953   41.5541   90.6417 C   0  0  0  0  0  0  0  0  0  0  0  0
  -22.9054   42.6681   90.2363 H   0  0  0  0  0  0  0  0  0  0  0  0
  -21.4220   43.5648   90.0028 H   0  0  0  0  0  0  0  0  0  0  0  0
  -21.4826   39.2059   93.0891 H   0  0  0  0  0  0  0  0  0  0  0  0
  -22.5575   43.0137   87.8526 H   0  0  0  0  0  0  0  0  0  0  0  0
  -22.4180   41.2796   88.1982 H   0  0  0  0  0  0  0  0  0  0  0  0
  -20.9640   42.2499   87.9075 H   0  0  0  0  0  0  0  0  0  0  0  0
  -17.2036   40.7977   89.9707 H   0  0  0  0  0  0  0  0  0  0  0  0
  -17.3139   39.2095   90.7006 H   0  0  0  0  0  0  0  0  0  0  0  0
  -14.8602   40.3291   92.9858 H   0  0  0  0  0  0  0  0  0  0  0  0
  -15.6450   39.0023   92.3836 H   0  0  0  0  0  0  0  0  0  0  0  0
  -23.1564   40.9978   92.8326 H   0  0  0  0  0  0  0  0  0  0  0  0
  -19.0838   38.9045   92.6670 H   0  0  0  0  0  0  0  0  0  0  0  0
  -17.1834   40.7256   93.0234 H   0  0  0  0  0  0  0  0  0  0  0  0
  -16.3640   41.8364   91.9013 H   0  0  0  0  0  0  0  0  0  0  0  0
  -19.2388   42.0106   89.6555 H   0  0  0  0  0  0  0  0  0  0  0  0
  -14.8460   40.0334   91.3525 H   0  0  0  0  0  0  0  0  0  0  0  0
  1  4  1  0  0  0  0
  1 12  1  0  0  0  0
  1 13  1  0  0  0  0
  1 14  1  0  0  0  0
  2  5  1  0  0  0  0
  2  9  2  0  0  0  0
  2 11  1  0  0  0  0
  3  8  2  0  0  0  0
  3  9  1  0  0  0  0
  3 15  1  0  0  0  0
  4 16  1  0  0  0  0
  4 17  1  0  0  0  0
  4 18  1  0  0  0  0
  5 10  1  0  0  0  0
  5 19  1  0  0  0  0
  5 20  1  0  0  0  0
  6 10  1  0  0  0  0
  6 21  1  0  0  0  0
  6 22  1  0  0  0  0
  6 28  1  0  0  0  0
  7  8  1  0  0  0  0
  7 23  1  0  0  0  0
  8 12  1  0  0  0  0
  9 24  1  0  0  0  0
 10 25  1  0  0  0  0
 10 26  1  0  0  0  0
 11 12  2  0  0  0  0
 11 27  1  0  0  0  0
M  CHG  1   6   1
M  END
$$$$
