AFQ
 OpenBabel04091912443D

 52 55  0  0  0  0  0  0  0  0999 V2000
   18.1946   17.1702   23.0424 C   0  0  0  0  0  0  0  0  0  0  0  0
   19.2731   17.5308   23.4770 O   0  0  0  0  0  0  0  0  0  0  0  0
   17.1300   16.8495   23.8398 N   0  3  0  0  0  0  0  0  0  0  0  0
   15.9439   16.3700   23.3868 C   0  0  0  0  0  0  0  0  0  0  0  0
   15.0464   16.0916   24.2619 N   0  0  0  0  0  0  0  0  0  0  0  0
   15.7492   16.2006   22.0551 N   0  3  0  0  0  0  0  0  0  0  0  0
   16.7070   16.5958   21.1073 C   0  0  0  0  0  0  0  0  0  0  0  0
   16.4571   16.4701   19.7147 C   0  0  0  0  0  0  0  0  0  0  0  0
   15.1822   15.8971   19.1632 C   0  0  0  0  0  0  0  0  0  0  0  0
   15.3489   14.4881   18.5900 C   0  0  0  0  0  0  0  0  0  0  0  0
   14.2123   14.2101   17.6414 N   0  3  0  0  0  0  0  0  0  0  0  0
   12.8303   14.2154   18.2179 C   0  0  0  0  0  0  0  0  0  0  0  0
   11.8009   14.3015   17.0933 C   0  0  0  0  0  0  0  0  0  0  0  0
   11.6835   15.7011   16.4800 C   0  0  0  0  0  0  0  0  0  0  0  0
   10.2612   15.7629   15.9448 C   0  0  0  0  0  0  0  0  0  0  0  0
    9.4340   14.9628   16.9382 C   0  0  0  0  0  0  0  0  0  0  0  0
   10.3921   13.9813   17.6049 C   0  0  0  0  0  0  0  0  0  0  0  0
   17.4770   16.9167   18.8409 C   0  0  0  0  0  0  0  0  0  0  0  0
   17.4947   16.9482   17.4574 N   0  0  0  0  0  0  0  0  0  0  0  0
   18.6846   17.4165   17.1427 C   0  0  0  0  0  0  0  0  0  0  0  0
   19.2729   17.6476   15.9607 N   0  0  0  0  0  0  0  0  0  0  0  0
   18.5952   17.4600   14.7088 C   0  0  0  0  0  0  0  0  0  0  0  0
   19.4256   17.6650   18.2592 N   0  3  0  0  0  0  0  0  0  0  0  0
   18.6764   17.3637   19.3598 C   0  0  0  0  0  0  0  0  0  0  0  0
   18.9819   17.4419   20.7066 C   0  0  0  0  0  0  0  0  0  0  0  0
   17.9581   17.0618   21.5714 C   0  0  0  0  0  0  0  0  0  0  0  0
   17.2383   16.9572   24.8375 H   0  0  0  0  0  0  0  0  0  0  0  0
   14.2078   15.7340   23.8042 H   0  0  0  0  0  0  0  0  0  0  0  0
   14.8165   15.9822   21.7683 H   0  0  0  0  0  0  0  0  0  0  0  0
   14.8062   16.5731   18.3860 H   0  0  0  0  0  0  0  0  0  0  0  0
   14.3956   15.8724   19.9205 H   0  0  0  0  0  0  0  0  0  0  0  0
   15.3373   13.7114   19.3650 H   0  0  0  0  0  0  0  0  0  0  0  0
   16.2656   14.3747   18.0017 H   0  0  0  0  0  0  0  0  0  0  0  0
   14.2815   14.9058   16.8841 H   0  0  0  0  0  0  0  0  0  0  0  0
   12.7287   15.0794   18.8815 H   0  0  0  0  0  0  0  0  0  0  0  0
   12.7273   13.3016   18.8116 H   0  0  0  0  0  0  0  0  0  0  0  0
   12.0584   13.5857   16.3018 H   0  0  0  0  0  0  0  0  0  0  0  0
   12.4164   15.8616   15.6823 H   0  0  0  0  0  0  0  0  0  0  0  0
   11.8334   16.4837   17.2332 H   0  0  0  0  0  0  0  0  0  0  0  0
   10.2055   15.3029   14.9520 H   0  0  0  0  0  0  0  0  0  0  0  0
    9.9021   16.7935   15.8553 H   0  0  0  0  0  0  0  0  0  0  0  0
    8.6044   14.4444   16.4462 H   0  0  0  0  0  0  0  0  0  0  0  0
    8.9969   15.6251   17.6948 H   0  0  0  0  0  0  0  0  0  0  0  0
   10.3201   14.0724   18.6947 H   0  0  0  0  0  0  0  0  0  0  0  0
   10.1288   12.9485   17.3511 H   0  0  0  0  0  0  0  0  0  0  0  0
   20.2152   18.0238   15.8921 H   0  0  0  0  0  0  0  0  0  0  0  0
   19.2789   17.7214   13.8938 H   0  0  0  0  0  0  0  0  0  0  0  0
   17.7150   18.1054   14.6264 H   0  0  0  0  0  0  0  0  0  0  0  0
   18.3001   16.4147   14.5747 H   0  0  0  0  0  0  0  0  0  0  0  0
   20.3818   18.0011   18.2626 H   0  0  0  0  0  0  0  0  0  0  0  0
   19.9474   17.7828   21.0662 H   0  0  0  0  0  0  0  0  0  0  0  0
   14.3779   13.3016   17.1855 H   0  0  0  0  0  0  0  0  0  0  0  0
  1  2  2  0  0  0  0
  1  3  1  0  0  0  0
  1 26  1  0  0  0  0
  3  4  1  0  0  0  0
  3 27  1  0  0  0  0
  4  5  2  0  0  0  0
  4  6  1  0  0  0  0
  5 28  1  0  0  0  0
  6  7  2  0  0  0  0
  6 29  1  0  0  0  0
  7  8  1  0  0  0  0
  7 26  1  0  0  0  0
  8  9  1  0  0  0  0
  8 18  2  0  0  0  0
  9 10  1  0  0  0  0
  9 30  1  0  0  0  0
  9 31  1  0  0  0  0
 10 11  1  0  0  0  0
 10 32  1  0  0  0  0
 10 33  1  0  0  0  0
 11 12  1  0  0  0  0
 11 34  1  0  0  0  0
 11 52  1  0  0  0  0
 12 13  1  0  0  0  0
 12 35  1  0  0  0  0
 12 36  1  0  0  0  0
 13 14  1  0  0  0  0
 13 17  1  0  0  0  0
 13 37  1  0  0  0  0
 14 15  1  0  0  0  0
 14 38  1  0  0  0  0
 14 39  1  0  0  0  0
 15 16  1  0  0  0  0
 15 40  1  0  0  0  0
 15 41  1  0  0  0  0
 16 17  1  0  0  0  0
 16 42  1  0  0  0  0
 16 43  1  0  0  0  0
 17 44  1  0  0  0  0
 17 45  1  0  0  0  0
 18 19  1  0  0  0  0
 18 24  1  0  0  0  0
 19 20  2  0  0  0  0
 20 21  1  0  0  0  0
 20 23  1  0  0  0  0
 21 22  1  0  0  0  0
 21 46  1  0  0  0  0
 22 47  1  0  0  0  0
 22 48  1  0  0  0  0
 22 49  1  0  0  0  0
 23 24  2  0  0  0  0
 23 50  1  0  0  0  0
 24 25  1  0  0  0  0
 25 26  2  0  0  0  0
 25 51  1  0  0  0  0
M  CHG  4   3   1   6   1  11   1  23   1
M  END
$$$$
