AHN
 OpenBabel04091914283D

 22 22  0  0  0  0  0  0  0  0999 V2000
  -18.3862  -15.0135   18.7306 C   0  0  0  0  0  0  0  0  0  0  0  0
  -18.9233  -15.8016   17.9644 O   0  0  0  0  0  0  0  0  0  0  0  0
  -18.3947  -15.2310   20.2196 C   0  0  0  0  0  0  0  0  0  0  0  0
  -17.7123  -13.8839   18.3204 N   0  0  0  0  0  0  0  0  0  0  0  0
  -17.5096  -13.6172   16.9117 C   0  0  0  0  0  0  0  0  0  0  0  0
  -18.5215  -12.6313   16.3203 C   0  0  0  0  0  0  0  0  0  0  0  0
  -18.4371  -12.6307   14.8349 C   0  0  0  0  0  0  0  0  0  0  0  0
  -18.7106  -13.6774   13.9749 C   0  0  0  0  0  0  0  0  0  0  0  0
  -18.0147  -11.5351   14.1218 N   0  0  0  0  0  0  0  0  0  0  0  0
  -18.0290  -11.9087   12.8607 C   0  0  0  0  0  0  0  0  0  0  0  0
  -18.4327  -13.2054   12.7257 N   0  3  0  0  0  0  0  0  0  0  0  0
  -17.8630  -14.4401   20.7537 H   0  0  0  0  0  0  0  0  0  0  0  0
  -17.9061  -16.1867   20.4400 H   0  0  0  0  0  0  0  0  0  0  0  0
  -19.4315  -15.2588   20.5701 H   0  0  0  0  0  0  0  0  0  0  0  0
  -17.3408  -13.2356   19.0020 H   0  0  0  0  0  0  0  0  0  0  0  0
  -17.5550  -14.5719   16.3745 H   0  0  0  0  0  0  0  0  0  0  0  0
  -16.4902  -13.2360   16.7928 H   0  0  0  0  0  0  0  0  0  0  0  0
  -18.3364  -11.6265   16.7187 H   0  0  0  0  0  0  0  0  0  0  0  0
  -19.5412  -12.9030   16.6238 H   0  0  0  0  0  0  0  0  0  0  0  0
  -19.0418  -14.6913   14.1568 H   0  0  0  0  0  0  0  0  0  0  0  0
  -17.7574  -11.2972   12.0114 H   0  0  0  0  0  0  0  0  0  0  0  0
  -18.5057  -13.7221   11.8625 H   0  0  0  0  0  0  0  0  0  0  0  0
  1  2  2  0  0  0  0
  1  3  1  0  0  0  0
  1  4  1  0  0  0  0
  3 12  1  0  0  0  0
  3 13  1  0  0  0  0
  3 14  1  0  0  0  0
  4  5  1  0  0  0  0
  4 15  1  0  0  0  0
  5  6  1  0  0  0  0
  5 16  1  0  0  0  0
  5 17  1  0  0  0  0
  6  7  1  0  0  0  0
  6 18  1  0  0  0  0
  6 19  1  0  0  0  0
  7  8  2  0  0  0  0
  7  9  1  0  0  0  0
  8 11  1  0  0  0  0
  8 20  1  0  0  0  0
  9 10  1  0  0  0  0
 10 11  2  0  0  0  0
 10 21  1  0  0  0  0
 11 22  1  0  0  0  0
M  CHG  1  11   1
M  END
$$$$
