AJD
 OpenBabel04091913173D

 32 33  0  0  1  0  0  0  0  0999 V2000
   46.0983   -4.4288   93.0069 O   0  0  0  0  0  0  0  0  0  0  0  0
   43.9516   -4.2151   92.2878 O   0  0  0  0  0  0  0  0  0  0  0  0
   48.2796    0.3931   93.7710 Br  0  0  0  0  0  0  0  0  0  0  0  0
   45.4264    0.4914   93.4949 C   0  0  0  0  0  0  0  0  0  0  0  0
   44.1648   -0.0578   93.2705 C   0  0  0  0  0  0  0  0  0  0  0  0
   46.4093   -1.6954   93.2334 C   0  0  0  0  0  0  0  0  0  0  0  0
   39.1008   -1.6456   92.4651 C   0  0  0  0  0  0  0  0  0  0  0  0
   39.0062   -0.9129   91.1451 C   0  0  0  0  0  0  0  0  0  0  0  0
   40.4404   -2.3428   92.5693 C   0  0  0  0  0  0  0  0  0  0  0  0
   41.5026   -0.4448   91.3384 C   0  0  0  0  0  0  0  0  0  0  0  0
   40.1156    0.0788   91.0480 N   0  3  0  0  0  0  0  0  0  0  0  0
   42.7755   -1.9837   92.7696 N   0  0  0  0  0  0  0  0  0  0  0  0
   45.0528   -3.7513   92.7376 C   0  0  0  0  0  0  0  0  0  0  0  0
   46.5547   -0.3327   93.4730 C   0  0  0  0  0  0  0  0  0  0  0  0
   44.0106   -1.4334   93.0092 C   0  0  0  0  0  0  0  0  0  0  0  0
   45.1530   -2.2587   92.9955 C   0  0  0  0  0  0  0  0  0  0  0  0
   41.5369   -1.2905   92.6294 C   0  0  2  0  0  0  0  0  0  0  0  0
   45.5177    1.5546   93.6884 H   0  0  0  0  0  0  0  0  0  0  0  0
   43.2969    0.5868   93.3122 H   0  0  0  0  0  0  0  0  0  0  0  0
   47.2973   -2.3434   93.2326 H   0  0  0  0  0  0  0  0  0  0  0  0
   38.2959   -2.3780   92.5363 H   0  0  0  0  0  0  0  0  0  0  0  0
   38.9953   -0.9353   93.2955 H   0  0  0  0  0  0  0  0  0  0  0  0
   38.0673   -0.3536   91.0769 H   0  0  0  0  0  0  0  0  0  0  0  0
   39.0886   -1.5938   90.2933 H   0  0  0  0  0  0  0  0  0  0  0  0
   40.6038   -2.9890   91.6946 H   0  0  0  0  0  0  0  0  0  0  0  0
   40.4748   -2.9802   93.4583 H   0  0  0  0  0  0  0  0  0  0  0  0
   42.1402    0.4434   91.4150 H   0  0  0  0  0  0  0  0  0  0  0  0
   41.8181   -1.0195   90.4624 H   0  0  0  0  0  0  0  0  0  0  0  0
   40.1184    0.4759   90.1005 H   0  0  0  0  0  0  0  0  0  0  0  0
   42.8221   -3.0208   92.6310 H   0  0  0  0  0  0  0  0  0  0  0  0
   41.3663   -0.6532   93.5075 H   0  0  0  0  0  0  0  0  0  0  0  0
   39.9247    0.8506   91.6982 H   0  0  0  0  0  0  0  0  0  0  0  0
  1 13  2  0  0  0  0
  2 13  1  0  0  0  0
  3 14  1  0  0  0  0
  4  5  2  0  0  0  0
  4 14  1  0  0  0  0
  4 18  1  0  0  0  0
  5 15  1  0  0  0  0
  5 19  1  0  0  0  0
  6 14  2  0  0  0  0
  6 16  1  0  0  0  0
  6 20  1  0  0  0  0
  7  8  1  0  0  0  0
  7  9  1  0  0  0  0
  7 21  1  0  0  0  0
  7 22  1  0  0  0  0
  8 11  1  0  0  0  0
  8 23  1  0  0  0  0
  8 24  1  0  0  0  0
  9 17  1  0  0  0  0
  9 25  1  0  0  0  0
  9 26  1  0  0  0  0
 10 11  1  0  0  0  0
 10 17  1  0  0  0  0
 10 27  1  0  0  0  0
 10 28  1  0  0  0  0
 11 29  1  0  0  0  0
 11 32  1  0  0  0  0
 12 15  1  0  0  0  0
 12 17  1  0  0  0  0
 12 30  1  0  0  0  0
 13 16  1  0  0  0  0
 15 16  2  0  0  0  0
 17 31  1  1  0  0  0
M  CHG  1  11   1
M  END
$$$$
