AKD
 OpenBabel04091913173D

 32 33  0  0  1  0  0  0  0  0999 V2000
   39.0365    3.8040   94.7897 O   0  0  0  0  0  0  0  0  0  0  0  0
   38.9653    2.1205   93.2738 O   0  0  0  0  0  0  0  0  0  0  0  0
   43.9808    6.0421   93.9404 Br  0  0  0  0  0  0  0  0  0  0  0  0
   43.8394    3.2685   93.3623 C   0  0  0  0  0  0  0  0  0  0  0  0
   43.2073    2.0471   93.2413 C   0  0  0  0  0  0  0  0  0  0  0  0
   41.7365    4.2771   93.9697 C   0  0  0  0  0  0  0  0  0  0  0  0
   39.4593   -1.3675   92.1546 C   0  0  0  0  0  0  0  0  0  0  0  0
   39.4637   -0.8702   90.7207 C   0  0  0  0  0  0  0  0  0  0  0  0
   40.8710   -1.6087   92.6850 C   0  0  0  0  0  0  0  0  0  0  0  0
   41.7775    0.0753   91.0448 C   0  0  0  0  0  0  0  0  0  0  0  0
   40.3773    0.2901   90.5682 N   0  3  0  0  0  0  0  0  0  0  0  0
   41.2498    0.6574   93.3904 N   0  0  0  0  0  0  0  0  0  0  0  0
   39.5675    2.9954   93.9931 C   0  0  0  0  0  0  0  0  0  0  0  0
   43.1027    4.3818   93.7380 C   0  0  0  0  0  0  0  0  0  0  0  0
   41.8342    1.9075   93.4841 C   0  0  0  0  0  0  0  0  0  0  0  0
   41.0757    3.0464   93.8331 C   0  0  0  0  0  0  0  0  0  0  0  0
   41.7616   -0.3814   92.5193 C   0  0  1  0  0  0  0  0  0  0  0  0
   44.9096    3.3320   93.1630 H   0  0  0  0  0  0  0  0  0  0  0  0
   43.8125    1.1907   92.9815 H   0  0  0  0  0  0  0  0  0  0  0  0
   41.1579    5.1534   94.2758 H   0  0  0  0  0  0  0  0  0  0  0  0
   38.8906   -2.2997   92.2225 H   0  0  0  0  0  0  0  0  0  0  0  0
   38.9336   -0.6431   92.7871 H   0  0  0  0  0  0  0  0  0  0  0  0
   38.4698   -0.5330   90.4160 H   0  0  0  0  0  0  0  0  0  0  0  0
   39.8048   -1.6508   90.0320 H   0  0  0  0  0  0  0  0  0  0  0  0
   41.3206   -2.4500   92.1453 H   0  0  0  0  0  0  0  0  0  0  0  0
   40.8160   -1.8809   93.7448 H   0  0  0  0  0  0  0  0  0  0  0  0
   42.2872    1.0335   90.9004 H   0  0  0  0  0  0  0  0  0  0  0  0
   42.2571   -0.6620   90.3914 H   0  0  0  0  0  0  0  0  0  0  0  0
   40.3863    0.6154   89.5964 H   0  0  0  0  0  0  0  0  0  0  0  0
   40.2675    0.6514   93.7027 H   0  0  0  0  0  0  0  0  0  0  0  0
   42.7741   -0.6563   92.8346 H   0  0  0  0  0  0  0  0  0  0  0  0
   39.9951    1.0705   91.1469 H   0  0  0  0  0  0  0  0  0  0  0  0
  1 13  2  0  0  0  0
  2 13  1  0  0  0  0
  3 14  1  0  0  0  0
  4  5  2  0  0  0  0
  4 14  1  0  0  0  0
  4 18  1  0  0  0  0
  5 15  1  0  0  0  0
  5 19  1  0  0  0  0
  6 14  2  0  0  0  0
  6 16  1  0  0  0  0
  6 20  1  0  0  0  0
  7  8  1  0  0  0  0
  7  9  1  0  0  0  0
  7 21  1  0  0  0  0
  7 22  1  0  0  0  0
  8 11  1  0  0  0  0
  8 23  1  0  0  0  0
  8 24  1  0  0  0  0
  9 17  1  0  0  0  0
  9 25  1  0  0  0  0
  9 26  1  0  0  0  0
 10 11  1  0  0  0  0
 10 17  1  0  0  0  0
 10 27  1  0  0  0  0
 10 28  1  0  0  0  0
 11 29  1  0  0  0  0
 11 32  1  0  0  0  0
 12 15  1  0  0  0  0
 12 17  1  0  0  0  0
 12 30  1  0  0  0  0
 13 16  1  0  0  0  0
 15 16  2  0  0  0  0
 17 31  1  1  0  0  0
M  CHG  1  11   1
M  END
$$$$
