ALA
 OpenBabel04091912223D

 13 12  0  0  1  0  0  0  0  0999 V2000
   25.2037   32.4298   18.9552 N   0  3  0  0  0  0  0  0  0  0  0  0
   26.5422   31.7252   18.8590 C   0  0  2  0  0  0  0  0  0  0  0  0
   26.3635   30.3369   18.1799 C   0  0  0  0  0  0  0  0  0  0  0  0
   27.3660   29.5957   18.1204 O   0  0  0  0  0  0  0  0  0  0  0  0
   27.1150   31.6071   20.2568 C   0  0  0  0  0  0  0  0  0  0  0  0
   25.1624   30.1942   17.7845 O   0  0  0  0  0  0  0  0  0  0  0  0
   25.2102   33.3672   19.3496 H   0  0  0  0  0  0  0  0  0  0  0  0
   24.8191   32.3964   17.9971 H   0  0  0  0  0  0  0  0  0  0  0  0
   27.1704   32.3601   18.2262 H   0  0  0  0  0  0  0  0  0  0  0  0
   28.1021   31.1334   20.2379 H   0  0  0  0  0  0  0  0  0  0  0  0
   26.4703   30.9992   20.9015 H   0  0  0  0  0  0  0  0  0  0  0  0
   27.2270   32.5932   20.7202 H   0  0  0  0  0  0  0  0  0  0  0  0
   24.5706   31.7848   19.4481 H   0  0  0  0  0  0  0  0  0  0  0  0
  1  2  1  0  0  0  0
  1  7  1  0  0  0  0
  1  8  1  0  0  0  0
  1 13  1  0  0  0  0
  2  3  1  0  0  0  0
  2  5  1  0  0  0  0
  2  9  1  6  0  0  0
  3  4  2  0  0  0  0
  3  6  1  0  0  0  0
  5 10  1  0  0  0  0
  5 11  1  0  0  0  0
  5 12  1  0  0  0  0
M  CHG  1   1   1
M  END
$$$$
