API
 OpenBabel04091915443D

 27 26  0  0  1  0  0  0  0  0999 V2000
   22.5861    0.9640   29.9118 C   0  0  0  0  0  0  0  0  0  0  0  0
   21.4339    1.9094   30.3429 C   0  0  2  0  0  0  0  0  0  0  0  0
   20.7999    2.5807   29.1251 C   0  0  0  0  0  0  0  0  0  0  0  0
   20.3594    1.5826   28.0492 C   0  0  0  0  0  0  0  0  0  0  0  0
   19.1034    2.0649   27.3195 C   0  0  0  0  0  0  0  0  0  0  0  0
   19.4226    3.0523   26.2018 C   0  0  2  0  0  0  0  0  0  0  0  0
   18.1718    3.8503   25.7453 C   0  0  0  0  0  0  0  0  0  0  0  0
   23.6015    1.6307   29.5515 O   0  0  0  0  0  0  0  0  0  0  0  0
   22.4030   -0.2499   30.1060 O   0  0  0  0  0  0  0  0  0  0  0  0
   18.0279    3.7764   24.4875 O   0  0  0  0  0  0  0  0  0  0  0  0
   17.5187    4.4553   26.6339 O   0  0  0  0  0  0  0  0  0  0  0  0
   21.9833    3.0250   31.2068 N   0  3  0  0  0  0  0  0  0  0  0  0
   20.0468    2.2748   25.0604 N   0  3  0  0  0  0  0  0  0  0  0  0
   20.6849    1.3875   30.9489 H   0  0  0  0  0  0  0  0  0  0  0  0
   21.4929    3.2996   28.6693 H   0  0  0  0  0  0  0  0  0  0  0  0
   19.9407    3.1670   29.4728 H   0  0  0  0  0  0  0  0  0  0  0  0
   20.1489    0.6008   28.4895 H   0  0  0  0  0  0  0  0  0  0  0  0
   21.1921    1.4313   27.3481 H   0  0  0  0  0  0  0  0  0  0  0  0
   18.4068    2.4982   28.0459 H   0  0  0  0  0  0  0  0  0  0  0  0
   18.5815    1.1958   26.8997 H   0  0  0  0  0  0  0  0  0  0  0  0
   20.1754    3.7865   26.5112 H   0  0  0  0  0  0  0  0  0  0  0  0
   21.3064    3.7366   31.4788 H   0  0  0  0  0  0  0  0  0  0  0  0
   22.4416    2.5981   32.0217 H   0  0  0  0  0  0  0  0  0  0  0  0
   20.1455    2.9503   24.2881 H   0  0  0  0  0  0  0  0  0  0  0  0
   20.9204    1.7976   25.2749 H   0  0  0  0  0  0  0  0  0  0  0  0
   22.7678    3.4184   30.6522 H   0  0  0  0  0  0  0  0  0  0  0  0
   19.3310    1.6307   24.7023 H   0  0  0  0  0  0  0  0  0  0  0  0
  1  2  1  0  0  0  0
  1  8  2  0  0  0  0
  1  9  1  0  0  0  0
  2  3  1  0  0  0  0
  2 12  1  0  0  0  0
  2 14  1  1  0  0  0
  3  4  1  0  0  0  0
  3 15  1  0  0  0  0
  3 16  1  0  0  0  0
  4  5  1  0  0  0  0
  4 17  1  0  0  0  0
  4 18  1  0  0  0  0
  5  6  1  0  0  0  0
  5 19  1  0  0  0  0
  5 20  1  0  0  0  0
  6  7  1  0  0  0  0
  6 13  1  0  0  0  0
  6 21  1  1  0  0  0
  7 10  2  0  0  0  0
  7 11  1  0  0  0  0
 12 22  1  0  0  0  0
 12 23  1  0  0  0  0
 12 26  1  0  0  0  0
 13 24  1  0  0  0  0
 13 25  1  0  0  0  0
 13 27  1  0  0  0  0
M  CHG  2  12   1  13   1
M  END
$$$$
