APR
 OpenBabel04091914473D

 57 60  0  0  1  0  0  0  0  0999 V2000
   18.0239   25.5340   15.6569 N   0  0  0  0  0  0  0  0  0  0  0  0
   17.9089   24.4662   16.4678 C   0  0  0  0  0  0  0  0  0  0  0  0
   17.0851   23.4117   16.3379 N   0  0  0  0  0  0  0  0  0  0  0  0
   16.3327   23.4894   15.2295 C   0  0  0  0  0  0  0  0  0  0  0  0
   16.3348   24.5062   14.2900 C   0  0  0  0  0  0  0  0  0  0  0  0
   17.2427   25.5708   14.5360 C   0  0  0  0  0  0  0  0  0  0  0  0
   17.3938   26.6726   13.7146 N   0  0  0  0  0  0  0  0  0  0  0  0
   15.4117   24.2416   13.2937 N   0  0  0  0  0  0  0  0  0  0  0  0
   14.8792   23.0787   13.6167 C   0  0  0  0  0  0  0  0  0  0  0  0
   15.4207   22.5681   14.7898 N   0  3  0  0  0  0  0  0  0  0  0  0
   15.0183   21.3411   15.4831 C   0  0  1  0  0  0  0  0  0  0  0  0
   13.6746   20.9022   14.9603 C   0  0  2  0  0  0  0  0  0  0  0  0
   12.6263   21.6551   15.5904 O   0  0  0  0  0  0  0  0  0  0  0  0
   13.6589   19.4431   15.3018 C   0  0  2  0  0  0  0  0  0  0  0  0
   13.2751   19.3355   16.6986 O   0  0  0  0  0  0  0  0  0  0  0  0
   15.9240   20.2339   15.2666 O   0  0  0  0  0  0  0  0  0  0  0  0
   15.1183   19.0123   15.1252 C   0  0  2  0  0  0  0  0  0  0  0  0
   15.4045   18.3254   13.7646 C   0  0  0  0  0  0  0  0  0  0  0  0
   14.7442   19.0189   12.7132 O   0  0  0  0  0  0  0  0  0  0  0  0
   15.4591   19.1637   11.2255 P   0  0  2  0  0  0  0  0  0  0  0  0
   16.7179   19.9784   11.4999 O   0  0  0  0  0  0  0  0  0  0  0  0
   14.4470   19.8154   10.2999 O   0  0  0  0  0  0  0  0  0  0  0  0
   15.8457   17.6847   10.9220 O   0  0  0  0  0  0  0  0  0  0  0  0
   15.2216   16.6164   10.0192 P   0  0  2  0  0  0  0  0  0  0  0  0
   13.7156   16.6458   10.2836 O   0  0  0  0  0  0  0  0  0  0  0  0
   16.0385   15.3344   10.2771 O   0  0  0  0  0  0  0  0  0  0  0  0
   15.6279   17.3286    8.6069 O   0  0  0  0  0  0  0  0  0  0  0  0
   16.8281   17.0153    7.9379 C   0  0  0  0  0  0  0  0  0  0  0  0
   16.6495   19.3150    7.3497 O   0  0  0  0  0  0  0  0  0  0  0  0
   17.1680   20.8010    5.7618 O   0  0  0  0  0  0  0  0  0  0  0  0
   17.6693   20.1870    6.9704 C   0  0  2  0  0  0  0  0  0  0  0  0
   19.9704   19.8516    6.0063 O   0  0  0  0  0  0  0  0  0  0  0  0
   18.9080   19.2849    6.7696 C   0  0  2  0  0  0  0  0  0  0  0  0
   18.0329   18.4261    4.6538 O   0  0  0  0  0  0  0  0  0  0  0  0
   18.2264   18.0965    6.1042 C   0  0  2  0  0  0  0  0  0  0  0  0
   16.9027   18.0033    6.7846 C   0  0  1  0  0  0  0  0  0  0  0  0
   18.5483   24.4551   17.3514 H   0  0  0  0  0  0  0  0  0  0  0  0
   16.8370   26.7231   12.8776 H   0  0  0  0  0  0  0  0  0  0  0  0
   18.0742   27.3717   13.9595 H   0  0  0  0  0  0  0  0  0  0  0  0
   14.1049   22.5781   13.0293 H   0  0  0  0  0  0  0  0  0  0  0  0
   14.9822   21.5430   16.5733 H   0  0  0  0  0  0  0  0  0  0  0  0
   13.6053   21.0188   13.8779 H   0  0  0  0  0  0  0  0  0  0  0  0
   12.6992   21.4855   16.5469 H   0  0  0  0  0  0  0  0  0  0  0  0
   12.9641   18.8623   14.6921 H   0  0  0  0  0  0  0  0  0  0  0  0
   12.3803   19.7197   16.7728 H   0  0  0  0  0  0  0  0  0  0  0  0
   15.4009   18.3243   15.9448 H   0  0  0  0  0  0  0  0  0  0  0  0
   15.0075   17.2968   13.7963 H   0  0  0  0  0  0  0  0  0  0  0  0
   16.4843   18.2758   13.5981 H   0  0  0  0  0  0  0  0  0  0  0  0
   16.7218   15.9988    7.5665 H   0  0  0  0  0  0  0  0  0  0  0  0
   17.7067   17.1011    8.5760 H   0  0  0  0  0  0  0  0  0  0  0  0
   16.8085   20.1509    5.2105 H   0  0  0  0  0  0  0  0  0  0  0  0
   17.8742   20.9881    7.6769 H   0  0  0  0  0  0  0  0  0  0  0  0
   20.6907   19.1978    5.9508 H   0  0  0  0  0  0  0  0  0  0  0  0
   19.3057   18.9708    7.7641 H   0  0  0  0  0  0  0  0  0  0  0  0
   17.4789   19.1408    4.4923 H   0  0  0  0  0  0  0  0  0  0  0  0
   18.8262   17.2077    6.0897 H   0  0  0  0  0  0  0  0  0  0  0  0
   16.1133   17.7513    6.0574 H   0  0  0  0  0  0  0  0  0  0  0  0
  1  2  2  0  0  0  0
  1  6  1  0  0  0  0
  2  3  1  0  0  0  0
  2 37  1  0  0  0  0
  3  4  2  0  0  0  0
  4  5  1  0  0  0  0
  4 10  1  0  0  0  0
  5  6  2  0  0  0  0
  5  8  1  0  0  0  0
  6  7  1  0  0  0  0
  7 38  1  0  0  0  0
  7 39  1  0  0  0  0
  8  9  1  0  0  0  0
  9 10  2  0  0  0  0
  9 40  1  0  0  0  0
 10 11  1  0  0  0  0
 11 12  1  0  0  0  0
 11 16  1  0  0  0  0
 11 41  1  1  0  0  0
 12 13  1  0  0  0  0
 12 14  1  0  0  0  0
 12 42  1  6  0  0  0
 13 43  1  0  0  0  0
 14 15  1  0  0  0  0
 14 17  1  0  0  0  0
 14 44  1  6  0  0  0
 15 45  1  0  0  0  0
 16 17  1  0  0  0  0
 17 18  1  0  0  0  0
 17 46  1  1  0  0  0
 18 19  1  0  0  0  0
 18 47  1  0  0  0  0
 18 48  1  0  0  0  0
 20 19  1  1  0  0  0
 20 21  2  0  0  0  0
 20 22  1  0  0  0  0
 20 23  1  0  0  0  0
 24 23  1  1  0  0  0
 24 25  2  0  0  0  0
 24 26  1  0  0  0  0
 24 27  1  0  0  0  0
 27 28  1  0  0  0  0
 28 36  1  0  0  0  0
 28 49  1  0  0  0  0
 28 50  1  0  0  0  0
 29 31  1  0  0  0  0
 29 36  1  0  0  0  0
 30 31  1  0  0  0  0
 30 51  1  0  0  0  0
 31 33  1  0  0  0  0
 31 52  1  1  0  0  0
 32 33  1  0  0  0  0
 32 53  1  0  0  0  0
 33 35  1  0  0  0  0
 33 54  1  1  0  0  0
 34 35  1  0  0  0  0
 34 55  1  0  0  0  0
 35 36  1  0  0  0  0
 35 56  1  1  0  0  0
 36 57  1  6  0  0  0
M  CHG  1  10   1
M  END
$$$$
