ARX
 OpenBabel04091911063D

 99101  0  0  1  0  0  0  0  0999 V2000
   25.0237   24.8714    8.0314 C   0  0  0  0  0  0  0  0  0  0  0  0
   35.4699   21.1941   13.4416 O   0  0  0  0  0  0  0  0  0  0  0  0
   36.2641   22.0127   12.9712 C   0  0  0  0  0  0  0  0  0  0  0  0
   37.3668   22.3394   13.7005 N   0  0  0  0  0  0  0  0  0  0  0  0
   36.1215   22.5744   11.5339 C   0  0  1  0  0  0  0  0  0  0  0  0
   36.7652   23.9320   11.2233 C   0  0  0  0  0  0  0  0  0  0  0  0
   38.2596   23.9542   10.9250 C   0  0  0  0  0  0  0  0  0  0  0  0
   38.8027   25.3732   10.7431 C   0  0  0  0  0  0  0  0  0  0  0  0
   40.0216   25.2970    9.9276 N   0  0  0  0  0  0  0  0  0  0  0  0
   40.3097   26.2178    9.0001 C   0  0  0  0  0  0  0  0  0  0  0  0
   40.7023   25.8143    7.7939 N   0  0  0  0  0  0  0  0  0  0  0  0
   40.1789   27.5162    9.2582 N   0  0  0  0  0  0  0  0  0  0  0  0
   36.2529   21.5205   10.5340 N   0  0  0  0  0  0  0  0  0  0  0  0
   37.3638   20.7348   10.3259 C   0  0  0  0  0  0  0  0  0  0  0  0
   38.4534   20.9878   10.8356 O   0  0  0  0  0  0  0  0  0  0  0  0
   37.0225   19.3475    9.7108 C   0  0  1  0  0  0  0  0  0  0  0  0
   36.7835   18.3454   10.8618 C   0  0  0  0  0  0  0  0  0  0  0  0
   38.0199   18.0402   11.7230 C   0  0  0  0  0  0  0  0  0  0  0  0
   38.0329   18.7850   13.0529 C   0  0  0  0  0  0  0  0  0  0  0  0
   37.4021   18.0529   14.1675 N   0  0  0  0  0  0  0  0  0  0  0  0
   36.1683   18.3602   14.6040 C   0  0  0  0  0  0  0  0  0  0  0  0
   35.1008   18.0579   13.8731 N   0  0  0  0  0  0  0  0  0  0  0  0
   36.0098   18.9126   15.8072 N   0  0  0  0  0  0  0  0  0  0  0  0
   35.7933   19.4213    8.8981 N   0  0  0  0  0  0  0  0  0  0  0  0
   35.8384   19.8196    7.5812 C   0  0  0  0  0  0  0  0  0  0  0  0
   36.8593   20.2716    7.0721 O   0  0  0  0  0  0  0  0  0  0  0  0
   34.5147   19.7328    6.8472 C   0  0  0  0  0  0  0  0  0  0  0  0
   34.0490   21.1192    6.3923 C   0  0  0  0  0  0  0  0  0  0  0  0
   33.5648   22.0332    7.5253 C   0  0  0  0  0  0  0  0  0  0  0  0
   32.3844   21.4608    8.3171 C   0  0  0  0  0  0  0  0  0  0  0  0
   32.2624   22.0729    9.7087 C   0  0  0  0  0  0  0  0  0  0  0  0
   31.8562   23.4552    9.6786 N   0  0  0  0  0  0  0  0  0  0  0  0
   30.5118   23.7570    9.6268 C   0  0  0  0  0  0  0  0  0  0  0  0
   29.6570   22.8754    9.6511 O   0  0  0  0  0  0  0  0  0  0  0  0
   30.1694   25.2444    9.5427 C   0  0  1  0  0  0  0  0  0  0  0  0
   29.4518   25.5311    8.3332 O   0  0  0  0  0  0  0  0  0  0  0  0
   28.2617   26.3041    8.6660 C   0  0  2  0  0  0  0  0  0  0  0  0
   28.4052   26.7164   10.1385 C   0  0  2  0  0  0  0  0  0  0  0  0
   29.1421   27.9488   10.2686 O   0  0  0  0  0  0  0  0  0  0  0  0
   29.2688   25.6115   10.7183 C   0  0  2  0  0  0  0  0  0  0  0  0
   30.0316   26.0659   11.8396 O   0  0  0  0  0  0  0  0  0  0  0  0
   27.0791   25.4970    8.4074 N   0  3  0  0  0  0  0  0  0  0  0  0
   25.8272   25.9935    8.1178 C   0  0  0  0  0  0  0  0  0  0  0  0
   25.7508   23.7234    8.2222 N   0  0  0  0  0  0  0  0  0  0  0  0
   26.9770   24.1437    8.4075 C   0  0  0  0  0  0  0  0  0  0  0  0
   25.4539   27.2698    7.9730 N   0  0  0  0  0  0  0  0  0  0  0  0
   24.1296   27.3486    7.6930 C   0  0  0  0  0  0  0  0  0  0  0  0
   23.2252   26.3468    7.5968 N   0  0  0  0  0  0  0  0  0  0  0  0
   23.6535   25.0765    7.7879 C   0  0  0  0  0  0  0  0  0  0  0  0
   22.7322   24.0461    7.7576 N   0  0  0  0  0  0  0  0  0  0  0  0
   38.2242   22.6577   13.2752 H   0  0  0  0  0  0  0  0  0  0  0  0
   37.4696   21.9021   14.6062 H   0  0  0  0  0  0  0  0  0  0  0  0
   35.0452   22.7977   11.4969 H   0  0  0  0  0  0  0  0  0  0  0  0
   36.5503   24.6175   12.0526 H   0  0  0  0  0  0  0  0  0  0  0  0
   36.2535   24.3434   10.3419 H   0  0  0  0  0  0  0  0  0  0  0  0
   38.4438   23.3878   10.0055 H   0  0  0  0  0  0  0  0  0  0  0  0
   38.8525   23.4768   11.7059 H   0  0  0  0  0  0  0  0  0  0  0  0
   39.0392   25.8321   11.7086 H   0  0  0  0  0  0  0  0  0  0  0  0
   38.0677   25.9915   10.2159 H   0  0  0  0  0  0  0  0  0  0  0  0
   40.4988   24.4051    9.8446 H   0  0  0  0  0  0  0  0  0  0  0  0
   40.8714   26.4726    7.0439 H   0  0  0  0  0  0  0  0  0  0  0  0
   39.9955   27.8308   10.2033 H   0  0  0  0  0  0  0  0  0  0  0  0
   40.4219   28.2218    8.5745 H   0  0  0  0  0  0  0  0  0  0  0  0
   35.4484   21.2882    9.9631 H   0  0  0  0  0  0  0  0  0  0  0  0
   37.8496   19.0276    9.0654 H   0  0  0  0  0  0  0  0  0  0  0  0
   36.4317   17.4002   10.4313 H   0  0  0  0  0  0  0  0  0  0  0  0
   35.9664   18.7215   11.4862 H   0  0  0  0  0  0  0  0  0  0  0  0
   38.9265   18.2976   11.1618 H   0  0  0  0  0  0  0  0  0  0  0  0
   38.0684   16.9640   11.9219 H   0  0  0  0  0  0  0  0  0  0  0  0
   37.5718   19.7653   12.9765 H   0  0  0  0  0  0  0  0  0  0  0  0
   39.0695   18.9632   13.3620 H   0  0  0  0  0  0  0  0  0  0  0  0
   38.0250   17.6638   14.8668 H   0  0  0  0  0  0  0  0  0  0  0  0
   34.1647   18.2842   14.1816 H   0  0  0  0  0  0  0  0  0  0  0  0
   36.8010   19.1965   16.3686 H   0  0  0  0  0  0  0  0  0  0  0  0
   35.0909   19.1909   16.1307 H   0  0  0  0  0  0  0  0  0  0  0  0
   34.9499   18.9737    9.2385 H   0  0  0  0  0  0  0  0  0  0  0  0
   33.7645   19.2272    7.4613 H   0  0  0  0  0  0  0  0  0  0  0  0
   34.6594   19.0843    5.9767 H   0  0  0  0  0  0  0  0  0  0  0  0
   33.2471   21.0062    5.6537 H   0  0  0  0  0  0  0  0  0  0  0  0
   34.8771   21.6254    5.8797 H   0  0  0  0  0  0  0  0  0  0  0  0
   33.2611   22.9942    7.0877 H   0  0  0  0  0  0  0  0  0  0  0  0
   34.4049   22.2578    8.1908 H   0  0  0  0  0  0  0  0  0  0  0  0
   32.4928   20.3857    8.4688 H   0  0  0  0  0  0  0  0  0  0  0  0
   31.4609   21.6010    7.7421 H   0  0  0  0  0  0  0  0  0  0  0  0
   33.2107   22.0131   10.2476 H   0  0  0  0  0  0  0  0  0  0  0  0
   31.5305   21.4946   10.2852 H   0  0  0  0  0  0  0  0  0  0  0  0
   32.5374   24.1829    9.5103 H   0  0  0  0  0  0  0  0  0  0  0  0
   31.0894   25.8398    9.5386 H   0  0  0  0  0  0  0  0  0  0  0  0
   28.2424   27.1651    7.9952 H   0  0  0  0  0  0  0  0  0  0  0  0
   27.4477   26.8413   10.6531 H   0  0  0  0  0  0  0  0  0  0  0  0
   28.8591   28.3449   11.1162 H   0  0  0  0  0  0  0  0  0  0  0  0
   28.6460   24.7705   11.0417 H   0  0  0  0  0  0  0  0  0  0  0  0
   30.4210   26.9224   11.5761 H   0  0  0  0  0  0  0  0  0  0  0  0
   27.8202   23.4794    8.5497 H   0  0  0  0  0  0  0  0  0  0  0  0
   23.7355   28.3482    7.5341 H   0  0  0  0  0  0  0  0  0  0  0  0
   21.8447   24.2643    7.3354 H   0  0  0  0  0  0  0  0  0  0  0  0
   23.1167   23.1115    7.6703 H   0  0  0  0  0  0  0  0  0  0  0  0
   40.6805   24.8329    7.5400 H   0  0  0  0  0  0  0  0  0  0  0  0
   35.2080   17.4970   13.0405 H   0  0  0  0  0  0  0  0  0  0  0  0
  1 43  2  0  0  0  0
  1 44  1  0  0  0  0
  1 49  1  0  0  0  0
  2  3  2  0  0  0  0
  3  4  1  0  0  0  0
  3  5  1  0  0  0  0
  4 51  1  0  0  0  0
  4 52  1  0  0  0  0
  5  6  1  0  0  0  0
  5 13  1  0  0  0  0
  5 53  1  6  0  0  0
  6  7  1  0  0  0  0
  6 54  1  0  0  0  0
  6 55  1  0  0  0  0
  7  8  1  0  0  0  0
  7 56  1  0  0  0  0
  7 57  1  0  0  0  0
  8  9  1  0  0  0  0
  8 58  1  0  0  0  0
  8 59  1  0  0  0  0
  9 10  1  0  0  0  0
  9 60  1  0  0  0  0
 10 11  2  0  0  0  0
 10 12  1  0  0  0  0
 11 61  1  0  0  0  0
 11 98  1  0  0  0  0
 12 62  1  0  0  0  0
 12 63  1  0  0  0  0
 13 14  1  0  0  0  0
 13 64  1  0  0  0  0
 14 15  2  0  0  0  0
 14 16  1  0  0  0  0
 16 17  1  0  0  0  0
 16 24  1  0  0  0  0
 16 65  1  6  0  0  0
 17 18  1  0  0  0  0
 17 66  1  0  0  0  0
 17 67  1  0  0  0  0
 18 19  1  0  0  0  0
 18 68  1  0  0  0  0
 18 69  1  0  0  0  0
 19 20  1  0  0  0  0
 19 70  1  0  0  0  0
 19 71  1  0  0  0  0
 20 21  1  0  0  0  0
 20 72  1  0  0  0  0
 21 22  2  0  0  0  0
 21 23  1  0  0  0  0
 22 73  1  0  0  0  0
 22 99  1  0  0  0  0
 23 74  1  0  0  0  0
 23 75  1  0  0  0  0
 24 25  1  0  0  0  0
 24 76  1  0  0  0  0
 25 26  2  0  0  0  0
 25 27  1  0  0  0  0
 27 28  1  0  0  0  0
 27 77  1  0  0  0  0
 27 78  1  0  0  0  0
 28 29  1  0  0  0  0
 28 79  1  0  0  0  0
 28 80  1  0  0  0  0
 29 30  1  0  0  0  0
 29 81  1  0  0  0  0
 29 82  1  0  0  0  0
 30 31  1  0  0  0  0
 30 83  1  0  0  0  0
 30 84  1  0  0  0  0
 31 32  1  0  0  0  0
 31 85  1  0  0  0  0
 31 86  1  0  0  0  0
 32 33  1  0  0  0  0
 32 87  1  0  0  0  0
 33 34  2  0  0  0  0
 33 35  1  0  0  0  0
 35 36  1  0  0  0  0
 35 40  1  0  0  0  0
 35 88  1  1  0  0  0
 36 37  1  0  0  0  0
 37 38  1  0  0  0  0
 37 42  1  0  0  0  0
 37 89  1  6  0  0  0
 38 39  1  0  0  0  0
 38 40  1  0  0  0  0
 38 90  1  1  0  0  0
 39 91  1  0  0  0  0
 40 41  1  0  0  0  0
 40 92  1  1  0  0  0
 41 93  1  0  0  0  0
 42 43  1  0  0  0  0
 42 45  2  0  0  0  0
 43 46  1  0  0  0  0
 44 45  1  0  0  0  0
 45 94  1  0  0  0  0
 46 47  2  0  0  0  0
 47 48  1  0  0  0  0
 47 95  1  0  0  0  0
 48 49  2  0  0  0  0
 49 50  1  0  0  0  0
 50 96  1  0  0  0  0
 50 97  1  0  0  0  0
M  CHG  1  42   1
M  END
$$$$
