ARZ
 OpenBabel04091913473D

 40 43  0  0  1  0  0  0  0  0999 V2000
   -5.2842   -0.4044   15.9671 N   0  0  0  0  0  0  0  0  0  0  0  0
   -6.5202    5.7475   13.5238 O   0  0  0  0  0  0  0  0  0  0  0  0
   -5.3153    1.1081   17.9637 O   0  0  0  0  0  0  0  0  0  0  0  0
   -7.2759    1.0965   16.3518 O   0  0  0  0  0  0  0  0  0  0  0  0
   -3.8147    8.2269    9.6621 C   0  0  0  0  0  0  0  0  0  0  0  0
   -6.2900    7.9227    9.2693 C   0  0  0  0  0  0  0  0  0  0  0  0
   -5.4484    9.5863   10.8822 C   0  0  0  0  0  0  0  0  0  0  0  0
   -4.8719    6.1733   10.5175 C   0  0  0  0  0  0  0  0  0  0  0  0
   -4.0241    7.8016   12.1052 C   0  0  0  0  0  0  0  0  0  0  0  0
   -6.5440    7.5944   11.7505 C   0  0  0  0  0  0  0  0  0  0  0  0
   -3.3584    3.4676   14.8513 N   0  0  0  0  0  0  0  0  0  0  0  0
   -3.7275    2.3784   15.6110 N   0  0  0  0  0  0  0  0  0  0  0  0
   -4.2934    5.1883   13.5390 N   0  0  0  0  0  0  0  0  0  0  0  0
   -5.9178    3.4875   14.9264 S   0  0  0  0  0  0  0  0  0  0  0  0
   -5.3728    5.8760   13.0573 C   0  0  0  0  0  0  0  0  0  0  0  0
   -4.4112    4.1327   14.3987 C   0  0  0  0  0  0  0  0  0  0  0  0
   -5.0306    2.2917   15.7376 C   0  0  0  0  0  0  0  0  0  0  0  0
   -4.9317    7.1969    9.3594 C   0  0  2  0  0  0  0  0  0  0  0  0
   -4.0843    8.8984   11.0258 C   0  0  1  0  0  0  0  0  0  0  0  0
   -6.5669    8.5965   10.6081 C   0  0  2  0  0  0  0  0  0  0  0  0
   -5.1865    6.8398   11.8737 C   0  0  1  0  0  0  0  0  0  0  0  0
   -5.8412    1.0259   16.6387 S   0  0  0  0  0  0  0  0  0  0  0  0
   -4.3188   -0.6431   16.2069 H   0  0  0  0  0  0  0  0  0  0  0  0
   -5.9652   -1.1075   15.7272 H   0  0  0  0  0  0  0  0  0  0  0  0
   -3.7617    8.9865    8.8795 H   0  0  0  0  0  0  0  0  0  0  0  0
   -2.8509    7.7065    9.6932 H   0  0  0  0  0  0  0  0  0  0  0  0
   -7.0989    7.2443    8.9752 H   0  0  0  0  0  0  0  0  0  0  0  0
   -6.2438    8.6909    8.4837 H   0  0  0  0  0  0  0  0  0  0  0  0
   -5.3882   10.2627   10.0122 H   0  0  0  0  0  0  0  0  0  0  0  0
   -5.6854   10.1859   11.7664 H   0  0  0  0  0  0  0  0  0  0  0  0
   -3.8290    5.8142   10.5470 H   0  0  0  0  0  0  0  0  0  0  0  0
   -5.5026    5.3038   10.3302 H   0  0  0  0  0  0  0  0  0  0  0  0
   -3.9796    8.1832   13.1307 H   0  0  0  0  0  0  0  0  0  0  0  0
   -3.0730    7.2513   11.9814 H   0  0  0  0  0  0  0  0  0  0  0  0
   -7.3660    6.8785   11.6089 H   0  0  0  0  0  0  0  0  0  0  0  0
   -6.7431    8.1348   12.6874 H   0  0  0  0  0  0  0  0  0  0  0  0
   -3.3433    5.4644   13.3529 H   0  0  0  0  0  0  0  0  0  0  0  0
   -4.7350    6.6899    8.4093 H   0  0  0  0  0  0  0  0  0  0  0  0
   -3.3253    9.6489   11.2621 H   0  0  0  0  0  0  0  0  0  0  0  0
   -7.5382    9.1121   10.5793 H   0  0  0  0  0  0  0  0  0  0  0  0
  1 22  1  0  0  0  0
  1 23  1  0  0  0  0
  1 24  1  0  0  0  0
  2 15  2  0  0  0  0
  3 22  2  0  0  0  0
  4 22  2  0  0  0  0
  5 18  1  0  0  0  0
  5 19  1  0  0  0  0
  5 25  1  0  0  0  0
  5 26  1  0  0  0  0
  6 18  1  0  0  0  0
  6 20  1  0  0  0  0
  6 27  1  0  0  0  0
  6 28  1  0  0  0  0
  7 19  1  0  0  0  0
  7 20  1  0  0  0  0
  7 29  1  0  0  0  0
  7 30  1  0  0  0  0
  8 18  1  0  0  0  0
  8 21  1  0  0  0  0
  8 31  1  0  0  0  0
  8 32  1  0  0  0  0
  9 19  1  0  0  0  0
  9 21  1  0  0  0  0
  9 33  1  0  0  0  0
  9 34  1  0  0  0  0
 10 20  1  0  0  0  0
 10 21  1  0  0  0  0
 10 35  1  0  0  0  0
 10 36  1  0  0  0  0
 11 12  1  0  0  0  0
 11 16  2  0  0  0  0
 12 17  2  0  0  0  0
 13 15  1  0  0  0  0
 13 16  1  0  0  0  0
 13 37  1  0  0  0  0
 14 16  1  0  0  0  0
 14 17  1  0  0  0  0
 17 22  1  0  0  0  0
 18 38  1  6  0  0  0
 19 39  1  1  0  0  0
 20 40  1  6  0  0  0
 21 15  1  1  0  0  0
M  END
$$$$
