ATP
 OpenBabel04091911293D

 43 45  0  0  1  0  0  0  0  0999 V2000
  -24.5010   10.1447  -17.3582 P   0  0  0  0  0  0  0  0  0  0  0  0
  -24.1390    9.6595  -18.7548 O   0  0  0  0  0  0  0  0  0  0  0  0
  -25.8069    9.5039  -16.8539 O   0  0  0  0  0  0  0  0  0  0  0  0
  -23.3847    9.9705  -16.3322 O   0  0  0  0  0  0  0  0  0  0  0  0
  -23.9288   13.0202  -17.8037 P   0  0  2  0  0  0  0  0  0  0  0  0
  -22.4859   12.7989  -18.2873 O   0  0  0  0  0  0  0  0  0  0  0  0
  -24.0610   14.1011  -16.7242 O   0  0  0  0  0  0  0  0  0  0  0  0
  -24.7853   11.7390  -17.4277 O   0  0  0  0  0  0  0  0  0  0  0  0
  -25.6620   12.7340  -20.0943 P   0  0  2  0  0  0  0  0  0  0  0  0
  -27.0449   12.5410  -19.5315 O   0  0  0  0  0  0  0  0  0  0  0  0
  -24.9190   11.7953  -21.0001 O   0  0  0  0  0  0  0  0  0  0  0  0
  -24.7399   13.5902  -19.1080 O   0  0  0  0  0  0  0  0  0  0  0  0
  -25.9895   13.9487  -21.1312 O   0  0  0  0  0  0  0  0  0  0  0  0
  -25.4624   13.8847  -22.4414 C   0  0  0  0  0  0  0  0  0  0  0  0
  -25.1920   15.3429  -22.7834 C   0  0  1  0  0  0  0  0  0  0  0  0
  -26.3962   16.1286  -22.5414 O   0  0  0  0  0  0  0  0  0  0  0  0
  -24.0816   15.8734  -21.8699 C   0  0  1  0  0  0  0  0  0  0  0  0
  -23.3010   16.8753  -22.5725 O   0  0  0  0  0  0  0  0  0  0  0  0
  -24.8158   16.5793  -20.7462 C   0  0  1  0  0  0  0  0  0  0  0  0
  -24.0468   17.7106  -20.2843 O   0  0  0  0  0  0  0  0  0  0  0  0
  -26.0694   17.0394  -21.4801 C   0  0  2  0  0  0  0  0  0  0  0  0
  -27.2029   17.3247  -20.6266 N   0  3  0  0  0  0  0  0  0  0  0  0
  -27.8246   16.4882  -19.7319 C   0  0  0  0  0  0  0  0  0  0  0  0
  -28.7571   17.1274  -19.0401 N   0  0  0  0  0  0  0  0  0  0  0  0
  -28.6946   18.4303  -19.4726 C   0  0  0  0  0  0  0  0  0  0  0  0
  -29.4146   19.5815  -19.1147 C   0  0  0  0  0  0  0  0  0  0  0  0
  -30.4469   19.5782  -18.1969 N   0  0  0  0  0  0  0  0  0  0  0  0
  -29.1246   20.7540  -19.7320 N   0  0  0  0  0  0  0  0  0  0  0  0
  -28.1579   20.7400  -20.6715 C   0  0  0  0  0  0  0  0  0  0  0  0
  -27.4045   19.7111  -21.1054 N   0  0  0  0  0  0  0  0  0  0  0  0
  -27.7307   18.5754  -20.4559 C   0  0  0  0  0  0  0  0  0  0  0  0
  -26.2041   13.4601  -23.1293 H   0  0  0  0  0  0  0  0  0  0  0  0
  -24.5307   13.3325  -22.5374 H   0  0  0  0  0  0  0  0  0  0  0  0
  -24.9390   15.4604  -23.8424 H   0  0  0  0  0  0  0  0  0  0  0  0
  -23.3826   15.1030  -21.5261 H   0  0  0  0  0  0  0  0  0  0  0  0
  -22.5950   17.0641  -21.9207 H   0  0  0  0  0  0  0  0  0  0  0  0
  -25.0354   15.9240  -19.9008 H   0  0  0  0  0  0  0  0  0  0  0  0
  -23.9352   18.2722  -21.0690 H   0  0  0  0  0  0  0  0  0  0  0  0
  -25.8415   17.9731  -22.0096 H   0  0  0  0  0  0  0  0  0  0  0  0
  -27.5530   15.4392  -19.6157 H   0  0  0  0  0  0  0  0  0  0  0  0
  -30.8270   20.4634  -17.9167 H   0  0  0  0  0  0  0  0  0  0  0  0
  -30.5519   18.7325  -17.6462 H   0  0  0  0  0  0  0  0  0  0  0  0
  -27.9633   21.6919  -21.1568 H   0  0  0  0  0  0  0  0  0  0  0  0
  1  2  2  0  0  0  0
  1  3  1  0  0  0  0
  1  4  1  0  0  0  0
  1  8  1  0  0  0  0
  5  6  2  6  0  0  0
  5  7  1  0  0  0  0
  5  8  1  0  0  0  0
  5 12  1  0  0  0  0
  9 10  2  1  0  0  0
  9 11  1  0  0  0  0
  9 12  1  0  0  0  0
  9 13  1  0  0  0  0
 13 14  1  0  0  0  0
 14 15  1  0  0  0  0
 14 32  1  0  0  0  0
 14 33  1  0  0  0  0
 15 16  1  0  0  0  0
 15 17  1  0  0  0  0
 15 34  1  6  0  0  0
 16 21  1  0  0  0  0
 17 18  1  0  0  0  0
 17 19  1  0  0  0  0
 17 35  1  1  0  0  0
 18 36  1  0  0  0  0
 19 20  1  0  0  0  0
 19 21  1  0  0  0  0
 19 37  1  1  0  0  0
 20 38  1  0  0  0  0
 21 22  1  0  0  0  0
 21 39  1  6  0  0  0
 22 23  2  0  0  0  0
 22 31  1  0  0  0  0
 23 24  1  0  0  0  0
 23 40  1  0  0  0  0
 24 25  1  0  0  0  0
 25 26  2  0  0  0  0
 25 31  1  0  0  0  0
 26 27  1  0  0  0  0
 26 28  1  0  0  0  0
 27 41  1  0  0  0  0
 27 42  1  0  0  0  0
 28 29  2  0  0  0  0
 29 30  1  0  0  0  0
 29 43  1  0  0  0  0
 30 31  2  0  0  0  0
M  CHG  1  22   1
M  END
$$$$
