ATP
 OpenBabel04091914543D

 43 45  0  0  1  0  0  0  0  0999 V2000
   20.7389   10.4249  -24.3206 P   0  0  0  0  0  0  0  0  0  0  0  0
   19.3219   10.4104  -24.8939 O   0  0  0  0  0  0  0  0  0  0  0  0
   21.1424   11.8593  -23.9302 O   0  0  0  0  0  0  0  0  0  0  0  0
   21.7819    9.7889  -25.2365 O   0  0  0  0  0  0  0  0  0  0  0  0
   20.7073    8.0646  -22.4725 P   0  0  1  0  0  0  0  0  0  0  0  0
   19.6110    7.2476  -23.1283 O   0  0  0  0  0  0  0  0  0  0  0  0
   22.1352    7.5012  -22.4682 O   0  0  0  0  0  0  0  0  0  0  0  0
   20.7116    9.6150  -22.9152 O   0  0  0  0  0  0  0  0  0  0  0  0
   19.2206    7.4504  -20.0403 P   0  0  2  0  0  0  0  0  0  0  0  0
   19.5673    5.9979  -19.7593 O   0  0  0  0  0  0  0  0  0  0  0  0
   17.7908    7.8547  -20.3462 O   0  0  0  0  0  0  0  0  0  0  0  0
   20.3215    8.2463  -20.8991 O   0  0  0  0  0  0  0  0  0  0  0  0
   19.5060    8.1564  -18.5742 O   0  0  0  0  0  0  0  0  0  0  0  0
   18.6484    9.2175  -18.2020 C   0  0  0  0  0  0  0  0  0  0  0  0
   18.8340    9.5356  -16.7145 C   0  0  1  0  0  0  0  0  0  0  0  0
   20.2232    9.4745  -16.3357 O   0  0  0  0  0  0  0  0  0  0  0  0
   18.3161   10.9305  -16.3399 C   0  0  1  0  0  0  0  0  0  0  0  0
   17.1898   10.8732  -15.4446 O   0  0  0  0  0  0  0  0  0  0  0  0
   19.4840   11.6048  -15.6207 C   0  0  1  0  0  0  0  0  0  0  0  0
   19.0534   12.2508  -14.4053 O   0  0  0  0  0  0  0  0  0  0  0  0
   20.4669   10.4641  -15.3546 C   0  0  2  0  0  0  0  0  0  0  0  0
   21.8547   10.8564  -15.4283 N   0  3  0  0  0  0  0  0  0  0  0  0
   22.5009   11.3774  -16.5264 C   0  0  0  0  0  0  0  0  0  0  0  0
   23.7319   11.7582  -16.2405 N   0  0  0  0  0  0  0  0  0  0  0  0
   23.9241   11.3630  -14.9338 C   0  0  0  0  0  0  0  0  0  0  0  0
   25.0457   11.4416  -14.0849 C   0  0  0  0  0  0  0  0  0  0  0  0
   26.2567   12.0272  -14.4514 N   0  0  0  0  0  0  0  0  0  0  0  0
   24.9451   10.9253  -12.8352 N   0  0  0  0  0  0  0  0  0  0  0  0
   23.7539   10.4019  -12.4663 C   0  0  0  0  0  0  0  0  0  0  0  0
   22.6027   10.3214  -13.1702 N   0  0  0  0  0  0  0  0  0  0  0  0
   22.7670   10.7900  -14.4061 C   0  0  0  0  0  0  0  0  0  0  0  0
   17.6005    8.9313  -18.3285 H   0  0  0  0  0  0  0  0  0  0  0  0
   18.8550   10.0873  -18.8340 H   0  0  0  0  0  0  0  0  0  0  0  0
   18.3145    8.7664  -16.1278 H   0  0  0  0  0  0  0  0  0  0  0  0
   18.0069   11.5079  -17.2191 H   0  0  0  0  0  0  0  0  0  0  0  0
   16.8514   11.7885  -15.4177 H   0  0  0  0  0  0  0  0  0  0  0  0
   19.9178   12.3736  -16.2683 H   0  0  0  0  0  0  0  0  0  0  0  0
   18.5456   11.5637  -13.9272 H   0  0  0  0  0  0  0  0  0  0  0  0
   20.2903   10.0214  -14.3658 H   0  0  0  0  0  0  0  0  0  0  0  0
   22.0220   11.4636  -17.4982 H   0  0  0  0  0  0  0  0  0  0  0  0
   27.0236   11.6606  -13.9068 H   0  0  0  0  0  0  0  0  0  0  0  0
   26.3713   12.0481  -15.4628 H   0  0  0  0  0  0  0  0  0  0  0  0
   23.7169   10.0014  -11.4557 H   0  0  0  0  0  0  0  0  0  0  0  0
  1  2  2  0  0  0  0
  1  3  1  0  0  0  0
  1  4  1  0  0  0  0
  1  8  1  0  0  0  0
  5  6  2  6  0  0  0
  5  7  1  0  0  0  0
  5  8  1  0  0  0  0
  5 12  1  0  0  0  0
  9 10  2  1  0  0  0
  9 11  1  0  0  0  0
  9 12  1  0  0  0  0
  9 13  1  0  0  0  0
 13 14  1  0  0  0  0
 14 15  1  0  0  0  0
 14 32  1  0  0  0  0
 14 33  1  0  0  0  0
 15 16  1  0  0  0  0
 15 17  1  0  0  0  0
 15 34  1  1  0  0  0
 16 21  1  0  0  0  0
 17 18  1  0  0  0  0
 17 19  1  0  0  0  0
 17 35  1  6  0  0  0
 18 36  1  0  0  0  0
 19 20  1  0  0  0  0
 19 21  1  0  0  0  0
 19 37  1  6  0  0  0
 20 38  1  0  0  0  0
 21 22  1  0  0  0  0
 21 39  1  1  0  0  0
 22 23  2  0  0  0  0
 22 31  1  0  0  0  0
 23 24  1  0  0  0  0
 23 40  1  0  0  0  0
 24 25  1  0  0  0  0
 25 26  2  0  0  0  0
 25 31  1  0  0  0  0
 26 27  1  0  0  0  0
 26 28  1  0  0  0  0
 27 41  1  0  0  0  0
 27 42  1  0  0  0  0
 28 29  2  0  0  0  0
 29 30  1  0  0  0  0
 29 43  1  0  0  0  0
 30 31  2  0  0  0  0
M  CHG  1  22   1
M  END
$$$$
