B01
 OpenBabel04091915153D

 51 53  0  0  1  0  0  0  0  0999 V2000
   16.3861  -16.0652   23.1665 N   0  3  0  0  0  0  0  0  0  0  0  0
   17.6200  -15.2149   23.2897 C   0  0  1  0  0  0  0  0  0  0  0  0
   17.3090  -13.8099   22.7730 C   0  0  0  0  0  0  0  0  0  0  0  0
   16.3300  -13.2208   23.2389 O   0  0  0  0  0  0  0  0  0  0  0  0
   18.0515  -15.1259   24.7593 C   0  0  0  0  0  0  0  0  0  0  0  0
   19.4668  -14.6139   24.8951 C   0  0  0  0  0  0  0  0  0  0  0  0
   20.5140  -15.1734   24.1451 C   0  0  0  0  0  0  0  0  0  0  0  0
   19.7574  -13.5682   25.7809 C   0  0  0  0  0  0  0  0  0  0  0  0
   21.8042  -14.6548   24.2246 C   0  0  0  0  0  0  0  0  0  0  0  0
   21.0589  -13.0732   25.8826 C   0  0  0  0  0  0  0  0  0  0  0  0
   22.0774  -13.6070   25.0962 C   0  0  0  0  0  0  0  0  0  0  0  0
   18.0533  -13.3153   21.7331 N   0  0  0  0  0  0  0  0  0  0  0  0
   17.7577  -11.9913   21.1935 C   0  0  2  0  0  0  0  0  0  0  0  0
   16.3383  -11.9919   20.5967 C   0  0  0  0  0  0  0  0  0  0  0  0
   15.9026  -12.9477   19.9645 O   0  0  0  0  0  0  0  0  0  0  0  0
   18.8140  -11.7427   20.1123 C   0  0  0  0  0  0  0  0  0  0  0  0
   19.4969  -13.0869   19.8818 C   0  0  0  0  0  0  0  0  0  0  0  0
   19.2607  -13.8702   21.1527 C   0  0  0  0  0  0  0  0  0  0  0  0
   14.2315  -10.6957   20.4462 C   0  0  0  0  0  0  0  0  0  0  0  0
   13.2831  -10.6087   21.6267 C   0  0  0  0  0  0  0  0  0  0  0  0
   11.5476  -11.5541   22.8510 C   0  0  0  0  0  0  0  0  0  0  0  0
   11.4825  -10.4792   23.7131 C   0  0  0  0  0  0  0  0  0  0  0  0
   12.3735   -9.4387   23.5014 C   0  0  0  0  0  0  0  0  0  0  0  0
   13.2830   -9.4869   22.4499 C   0  0  0  0  0  0  0  0  0  0  0  0
   15.6193  -10.8342   20.8427 N   0  0  0  0  0  0  0  0  0  0  0  0
   12.4303  -11.6467   21.8296 N   0  0  0  0  0  0  0  0  0  0  0  0
   12.3513   -8.0717   24.5456 Cl  0  0  0  0  0  0  0  0  0  0  0  0
   16.5266  -17.0198   23.5132 H   0  0  0  0  0  0  0  0  0  0  0  0
   15.6040  -15.6172   23.6670 H   0  0  0  0  0  0  0  0  0  0  0  0
   18.3504  -15.7320   22.6730 H   0  0  0  0  0  0  0  0  0  0  0  0
   17.9963  -16.1070   25.2440 H   0  0  0  0  0  0  0  0  0  0  0  0
   17.3649  -14.4666   25.3092 H   0  0  0  0  0  0  0  0  0  0  0  0
   20.3515  -16.0063   23.4660 H   0  0  0  0  0  0  0  0  0  0  0  0
   18.9820  -13.1219   26.4019 H   0  0  0  0  0  0  0  0  0  0  0  0
   22.5979  -15.0707   23.6078 H   0  0  0  0  0  0  0  0  0  0  0  0
   21.2813  -12.2668   26.5782 H   0  0  0  0  0  0  0  0  0  0  0  0
   23.0882  -13.2136   25.1716 H   0  0  0  0  0  0  0  0  0  0  0  0
   17.8362  -11.2536   22.0003 H   0  0  0  0  0  0  0  0  0  0  0  0
   19.5498  -11.0101   20.4621 H   0  0  0  0  0  0  0  0  0  0  0  0
   18.3901  -11.3631   19.1769 H   0  0  0  0  0  0  0  0  0  0  0  0
   20.5657  -12.9843   19.6661 H   0  0  0  0  0  0  0  0  0  0  0  0
   19.0357  -13.6079   19.0355 H   0  0  0  0  0  0  0  0  0  0  0  0
   19.1459  -14.9375   20.9483 H   0  0  0  0  0  0  0  0  0  0  0  0
   20.0789  -13.7218   21.8613 H   0  0  0  0  0  0  0  0  0  0  0  0
   14.1561   -9.7751   19.8578 H   0  0  0  0  0  0  0  0  0  0  0  0
   13.9359  -11.5263   19.7971 H   0  0  0  0  0  0  0  0  0  0  0  0
   10.8689  -12.3961   22.9563 H   0  0  0  0  0  0  0  0  0  0  0  0
   10.7563  -10.4532   24.5175 H   0  0  0  0  0  0  0  0  0  0  0  0
   13.9615   -8.6598   22.2718 H   0  0  0  0  0  0  0  0  0  0  0  0
   16.0005  -10.1433   21.4739 H   0  0  0  0  0  0  0  0  0  0  0  0
   16.0949  -16.1109   22.1788 H   0  0  0  0  0  0  0  0  0  0  0  0
  1  2  1  0  0  0  0
  1 28  1  0  0  0  0
  1 29  1  0  0  0  0
  1 51  1  0  0  0  0
  2  3  1  0  0  0  0
  2  5  1  0  0  0  0
  2 30  1  6  0  0  0
  3  4  2  0  0  0  0
  3 12  1  0  0  0  0
  5  6  1  0  0  0  0
  5 31  1  0  0  0  0
  5 32  1  0  0  0  0
  6  7  2  0  0  0  0
  6  8  1  0  0  0  0
  7  9  1  0  0  0  0
  7 33  1  0  0  0  0
  8 10  2  0  0  0  0
  8 34  1  0  0  0  0
  9 11  2  0  0  0  0
  9 35  1  0  0  0  0
 10 11  1  0  0  0  0
 10 36  1  0  0  0  0
 11 37  1  0  0  0  0
 12 13  1  0  0  0  0
 12 18  1  0  0  0  0
 13 14  1  0  0  0  0
 13 16  1  0  0  0  0
 13 38  1  1  0  0  0
 14 15  2  0  0  0  0
 14 25  1  0  0  0  0
 16 17  1  0  0  0  0
 16 39  1  0  0  0  0
 16 40  1  0  0  0  0
 17 18  1  0  0  0  0
 17 41  1  0  0  0  0
 17 42  1  0  0  0  0
 18 43  1  0  0  0  0
 18 44  1  0  0  0  0
 19 20  1  0  0  0  0
 19 25  1  0  0  0  0
 19 45  1  0  0  0  0
 19 46  1  0  0  0  0
 20 24  2  0  0  0  0
 20 26  1  0  0  0  0
 21 22  1  0  0  0  0
 21 26  2  0  0  0  0
 21 47  1  0  0  0  0
 22 23  2  0  0  0  0
 22 48  1  0  0  0  0
 23 24  1  0  0  0  0
 23 27  1  0  0  0  0
 24 49  1  0  0  0  0
 25 50  1  0  0  0  0
M  CHG  1   1   1
M  END
$$$$
