B03
 OpenBabel04091915153D

 51 53  0  0  1  0  0  0  0  0999 V2000
   16.6459  -15.3880   23.3579 N   0  3  0  0  0  0  0  0  0  0  0  0
   18.0000  -14.7144   23.3650 C   0  0  1  0  0  0  0  0  0  0  0  0
   17.8221  -13.2925   22.8208 C   0  0  0  0  0  0  0  0  0  0  0  0
   16.8900  -12.6182   23.2696 O   0  0  0  0  0  0  0  0  0  0  0  0
   18.5090  -14.6416   24.8133 C   0  0  0  0  0  0  0  0  0  0  0  0
   19.8981  -14.0573   24.9056 C   0  0  0  0  0  0  0  0  0  0  0  0
   20.9969  -14.7378   24.3647 C   0  0  0  0  0  0  0  0  0  0  0  0
   20.1002  -12.8028   25.4978 C   0  0  0  0  0  0  0  0  0  0  0  0
   22.2646  -14.1536   24.3738 C   0  0  0  0  0  0  0  0  0  0  0  0
   21.3735  -12.2326   25.5274 C   0  0  0  0  0  0  0  0  0  0  0  0
   22.4537  -12.9043   24.9560 C   0  0  0  0  0  0  0  0  0  0  0  0
   18.6355  -12.8557   21.8094 N   0  0  0  0  0  0  0  0  0  0  0  0
   18.4191  -11.5355   21.2143 C   0  0  2  0  0  0  0  0  0  0  0  0
   17.0274  -11.5079   20.5481 C   0  0  0  0  0  0  0  0  0  0  0  0
   16.6348  -12.4356   19.8408 O   0  0  0  0  0  0  0  0  0  0  0  0
   19.5099  -11.3886   20.1477 C   0  0  0  0  0  0  0  0  0  0  0  0
   20.5240  -12.4851   20.4476 C   0  0  0  0  0  0  0  0  0  0  0  0
   19.7312  -13.5572   21.1665 C   0  0  0  0  0  0  0  0  0  0  0  0
   16.2860  -10.3822   20.8273 N   0  0  0  0  0  0  0  0  0  0  0  0
   14.9362  -10.2016   20.3144 C   0  0  0  0  0  0  0  0  0  0  0  0
   13.8892  -10.1164   21.4010 C   0  0  0  0  0  0  0  0  0  0  0  0
   13.8439   -9.0067   22.2534 C   0  0  0  0  0  0  0  0  0  0  0  0
   12.8289   -8.9250   23.2032 C   0  0  0  0  0  0  0  0  0  0  0  0
   11.8794   -9.9379   23.2759 C   0  0  0  0  0  0  0  0  0  0  0  0
   11.9921  -11.0032   22.4005 C   0  0  0  0  0  0  0  0  0  0  0  0
   12.9810  -11.1242   21.4870 N   0  0  0  0  0  0  0  0  0  0  0  0
   16.6494  -16.3294   23.7629 H   0  0  0  0  0  0  0  0  0  0  0  0
   15.9749  -14.7913   23.8693 H   0  0  0  0  0  0  0  0  0  0  0  0
   18.6315  -15.3349   22.7259 H   0  0  0  0  0  0  0  0  0  0  0  0
   18.5203  -15.6412   25.2662 H   0  0  0  0  0  0  0  0  0  0  0  0
   17.8189  -14.0420   25.4223 H   0  0  0  0  0  0  0  0  0  0  0  0
   20.8844  -15.7184   23.9067 H   0  0  0  0  0  0  0  0  0  0  0  0
   19.2742  -12.2500   25.9429 H   0  0  0  0  0  0  0  0  0  0  0  0
   23.1095  -14.6734   23.9281 H   0  0  0  0  0  0  0  0  0  0  0  0
   21.5277  -11.2656   25.9964 H   0  0  0  0  0  0  0  0  0  0  0  0
   23.4444  -12.4549   24.9763 H   0  0  0  0  0  0  0  0  0  0  0  0
   18.5048  -10.7792   22.0016 H   0  0  0  0  0  0  0  0  0  0  0  0
   19.9775  -10.3989   20.1863 H   0  0  0  0  0  0  0  0  0  0  0  0
   19.1142  -11.5165   19.1333 H   0  0  0  0  0  0  0  0  0  0  0  0
   21.3118  -12.0953   21.1029 H   0  0  0  0  0  0  0  0  0  0  0  0
   21.0052  -12.8724   19.5439 H   0  0  0  0  0  0  0  0  0  0  0  0
   19.3067  -14.2910   20.4747 H   0  0  0  0  0  0  0  0  0  0  0  0
   20.3459  -14.0840   21.8945 H   0  0  0  0  0  0  0  0  0  0  0  0
   16.5945   -9.7558   21.5577 H   0  0  0  0  0  0  0  0  0  0  0  0
   14.6814  -11.0082   19.6192 H   0  0  0  0  0  0  0  0  0  0  0  0
   14.9357   -9.2665   19.7432 H   0  0  0  0  0  0  0  0  0  0  0  0
   14.5705   -8.2055   22.1665 H   0  0  0  0  0  0  0  0  0  0  0  0
   12.7665   -8.0694   23.8697 H   0  0  0  0  0  0  0  0  0  0  0  0
   11.0640   -9.8893   23.9886 H   0  0  0  0  0  0  0  0  0  0  0  0
   11.2644  -11.8090   22.4072 H   0  0  0  0  0  0  0  0  0  0  0  0
   16.2793  -15.4361   22.3962 H   0  0  0  0  0  0  0  0  0  0  0  0
  1  2  1  0  0  0  0
  1 27  1  0  0  0  0
  1 28  1  0  0  0  0
  1 51  1  0  0  0  0
  2  3  1  0  0  0  0
  2  5  1  0  0  0  0
  2 29  1  6  0  0  0
  3  4  2  0  0  0  0
  3 12  1  0  0  0  0
  5  6  1  0  0  0  0
  5 30  1  0  0  0  0
  5 31  1  0  0  0  0
  6  7  2  0  0  0  0
  6  8  1  0  0  0  0
  7  9  1  0  0  0  0
  7 32  1  0  0  0  0
  8 10  2  0  0  0  0
  8 33  1  0  0  0  0
  9 11  2  0  0  0  0
  9 34  1  0  0  0  0
 10 11  1  0  0  0  0
 10 35  1  0  0  0  0
 11 36  1  0  0  0  0
 12 13  1  0  0  0  0
 12 18  1  0  0  0  0
 13 14  1  0  0  0  0
 13 16  1  0  0  0  0
 13 37  1  1  0  0  0
 14 15  2  0  0  0  0
 14 19  1  0  0  0  0
 16 17  1  0  0  0  0
 16 38  1  0  0  0  0
 16 39  1  0  0  0  0
 17 18  1  0  0  0  0
 17 40  1  0  0  0  0
 17 41  1  0  0  0  0
 18 42  1  0  0  0  0
 18 43  1  0  0  0  0
 19 20  1  0  0  0  0
 19 44  1  0  0  0  0
 20 21  1  0  0  0  0
 20 45  1  0  0  0  0
 20 46  1  0  0  0  0
 21 22  2  0  0  0  0
 21 26  1  0  0  0  0
 22 23  1  0  0  0  0
 22 47  1  0  0  0  0
 23 24  2  0  0  0  0
 23 48  1  0  0  0  0
 24 25  1  0  0  0  0
 24 49  1  0  0  0  0
 25 26  2  0  0  0  0
 25 50  1  0  0  0  0
M  CHG  1   1   1
M  END
$$$$
