B04
 OpenBabel04091915153D

 55 57  0  0  1  0  0  0  0  0999 V2000
   16.6732  -15.6488   23.3000 N   0  3  0  0  0  0  0  0  0  0  0  0
   17.9877  -14.9024   23.3175 C   0  0  1  0  0  0  0  0  0  0  0  0
   17.7337  -13.5020   22.7431 C   0  0  0  0  0  0  0  0  0  0  0  0
   16.7379  -12.8819   23.1412 O   0  0  0  0  0  0  0  0  0  0  0  0
   18.4609  -14.7999   24.7705 C   0  0  0  0  0  0  0  0  0  0  0  0
   19.8494  -14.2281   24.8661 C   0  0  0  0  0  0  0  0  0  0  0  0
   20.9396  -14.9164   24.3136 C   0  0  0  0  0  0  0  0  0  0  0  0
   20.0672  -12.9936   25.4893 C   0  0  0  0  0  0  0  0  0  0  0  0
   22.2151  -14.3586   24.3520 C   0  0  0  0  0  0  0  0  0  0  0  0
   21.3475  -12.4469   25.5418 C   0  0  0  0  0  0  0  0  0  0  0  0
   22.4195  -13.1275   24.9674 C   0  0  0  0  0  0  0  0  0  0  0  0
   18.5208  -13.0556   21.7117 N   0  0  0  0  0  0  0  0  0  0  0  0
   18.2614  -11.7591   21.0855 C   0  0  2  0  0  0  0  0  0  0  0  0
   16.8262  -11.7705   20.5163 C   0  0  0  0  0  0  0  0  0  0  0  0
   16.3346  -12.7594   19.9713 O   0  0  0  0  0  0  0  0  0  0  0  0
   19.2890  -11.6407   19.9571 C   0  0  0  0  0  0  0  0  0  0  0  0
   20.3688  -12.6611   20.2924 C   0  0  0  0  0  0  0  0  0  0  0  0
   19.6481  -13.7311   21.0865 C   0  0  0  0  0  0  0  0  0  0  0  0
   16.1083  -10.6162   20.7317 N   0  0  0  0  0  0  0  0  0  0  0  0
   14.7543  -10.4350   20.2457 C   0  0  0  0  0  0  0  0  0  0  0  0
   13.7413  -10.4013   21.3724 C   0  0  0  0  0  0  0  0  0  0  0  0
   13.5165   -9.1734   22.0288 C   0  0  0  0  0  0  0  0  0  0  0  0
   12.6091   -9.0791   23.0768 C   0  0  0  0  0  0  0  0  0  0  0  0
   11.9274  -10.2125   23.4754 C   0  0  0  0  0  0  0  0  0  0  0  0
   12.1645  -11.4146   22.8284 C   0  0  0  0  0  0  0  0  0  0  0  0
   13.0613  -11.5063   21.8065 N   0  3  0  0  0  0  0  0  0  0  0  0
   13.2368  -12.8454   21.2122 C   0  0  0  0  0  0  0  0  0  0  0  0
   16.7465  -16.5867   23.7104 H   0  0  0  0  0  0  0  0  0  0  0  0
   15.9753  -15.1011   23.8232 H   0  0  0  0  0  0  0  0  0  0  0  0
   18.6541  -15.4958   22.6893 H   0  0  0  0  0  0  0  0  0  0  0  0
   18.4593  -15.7884   25.2444 H   0  0  0  0  0  0  0  0  0  0  0  0
   17.7629  -14.1811   25.3516 H   0  0  0  0  0  0  0  0  0  0  0  0
   20.8166  -15.8837   23.8328 H   0  0  0  0  0  0  0  0  0  0  0  0
   19.2472  -12.4395   25.9536 H   0  0  0  0  0  0  0  0  0  0  0  0
   23.0581  -14.8875   23.9095 H   0  0  0  0  0  0  0  0  0  0  0  0
   21.5178  -11.4955   26.0397 H   0  0  0  0  0  0  0  0  0  0  0  0
   23.4194  -12.7043   25.0144 H   0  0  0  0  0  0  0  0  0  0  0  0
   18.3858  -10.9787   21.8445 H   0  0  0  0  0  0  0  0  0  0  0  0
   19.7059  -10.6300   19.8929 H   0  0  0  0  0  0  0  0  0  0  0  0
   18.8489  -11.8722   18.9802 H   0  0  0  0  0  0  0  0  0  0  0  0
   21.1465  -12.1964   20.9093 H   0  0  0  0  0  0  0  0  0  0  0  0
   20.8524  -13.0718   19.4001 H   0  0  0  0  0  0  0  0  0  0  0  0
   19.2502  -14.5221   20.4428 H   0  0  0  0  0  0  0  0  0  0  0  0
   20.3013  -14.1825   21.8315 H   0  0  0  0  0  0  0  0  0  0  0  0
   16.5295   -9.8717   21.2786 H   0  0  0  0  0  0  0  0  0  0  0  0
   14.5024  -11.1907   19.4968 H   0  0  0  0  0  0  0  0  0  0  0  0
   14.7363   -9.4808   19.7081 H   0  0  0  0  0  0  0  0  0  0  0  0
   14.0487   -8.2761   21.7137 H   0  0  0  0  0  0  0  0  0  0  0  0
   12.4362   -8.1236   23.5729 H   0  0  0  0  0  0  0  0  0  0  0  0
   11.2080  -10.1577   24.2901 H   0  0  0  0  0  0  0  0  0  0  0  0
   11.6433  -12.3186   23.1163 H   0  0  0  0  0  0  0  0  0  0  0  0
   13.9745  -12.8624   20.4215 H   0  0  0  0  0  0  0  0  0  0  0  0
   12.2716  -13.1588   20.8067 H   0  0  0  0  0  0  0  0  0  0  0  0
   13.5600  -13.5206   22.0106 H   0  0  0  0  0  0  0  0  0  0  0  0
   16.3332  -15.7358   22.3333 H   0  0  0  0  0  0  0  0  0  0  0  0
  1  2  1  0  0  0  0
  1 28  1  0  0  0  0
  1 29  1  0  0  0  0
  1 55  1  0  0  0  0
  2  3  1  0  0  0  0
  2  5  1  0  0  0  0
  2 30  1  6  0  0  0
  3  4  2  0  0  0  0
  3 12  1  0  0  0  0
  5  6  1  0  0  0  0
  5 31  1  0  0  0  0
  5 32  1  0  0  0  0
  6  7  2  0  0  0  0
  6  8  1  0  0  0  0
  7  9  1  0  0  0  0
  7 33  1  0  0  0  0
  8 10  2  0  0  0  0
  8 34  1  0  0  0  0
  9 11  2  0  0  0  0
  9 35  1  0  0  0  0
 10 11  1  0  0  0  0
 10 36  1  0  0  0  0
 11 37  1  0  0  0  0
 12 13  1  0  0  0  0
 12 18  1  0  0  0  0
 13 14  1  0  0  0  0
 13 16  1  0  0  0  0
 13 38  1  1  0  0  0
 14 15  2  0  0  0  0
 14 19  1  0  0  0  0
 16 17  1  0  0  0  0
 16 39  1  0  0  0  0
 16 40  1  0  0  0  0
 17 18  1  0  0  0  0
 17 41  1  0  0  0  0
 17 42  1  0  0  0  0
 18 43  1  0  0  0  0
 18 44  1  0  0  0  0
 19 20  1  0  0  0  0
 19 45  1  0  0  0  0
 20 21  1  0  0  0  0
 20 46  1  0  0  0  0
 20 47  1  0  0  0  0
 21 22  2  0  0  0  0
 21 26  1  0  0  0  0
 22 23  1  0  0  0  0
 22 48  1  0  0  0  0
 23 24  2  0  0  0  0
 23 49  1  0  0  0  0
 24 25  1  0  0  0  0
 24 50  1  0  0  0  0
 25 26  2  0  0  0  0
 25 51  1  0  0  0  0
 26 27  1  0  0  0  0
 27 52  1  0  0  0  0
 27 53  1  0  0  0  0
 27 54  1  0  0  0  0
M  CHG  2   1   1  26   1
M  END
$$$$
