B2J
 OpenBabel04091910553D

 21 21  0  0  0  0  0  0  0  0999 V2000
   33.1249   37.9267   51.7175 C   0  0  0  0  0  0  0  0  0  0  0  0
   32.5006   36.7739   52.4838 C   0  0  0  0  0  0  0  0  0  0  0  0
   33.5863   35.3131   52.4856 S   0  0  0  0  0  0  0  0  0  0  0  0
   33.2001   34.6203   50.8881 C   0  0  0  0  0  0  0  0  0  0  0  0
   34.2347   34.1762   50.1833 N   0  0  0  0  0  0  0  0  0  0  0  0
   31.9212   34.5318   50.5331 N   0  0  0  0  0  0  0  0  0  0  0  0
   31.7123   33.9409   49.3535 C   0  0  0  0  0  0  0  0  0  0  0  0
   30.2960   33.7998   48.8974 C   0  0  0  0  0  0  0  0  0  0  0  0
   32.6810   33.4688   48.5687 N   0  0  0  0  0  0  0  0  0  0  0  0
   33.9188   33.6087   49.0327 C   0  0  0  0  0  0  0  0  0  0  0  0
   34.9541   33.1181   48.2872 N   0  0  0  0  0  0  0  0  0  0  0  0
   32.4608   38.7973   51.7500 H   0  0  0  0  0  0  0  0  0  0  0  0
   33.2884   37.6751   50.6659 H   0  0  0  0  0  0  0  0  0  0  0  0
   34.0822   38.2275   52.1580 H   0  0  0  0  0  0  0  0  0  0  0  0
   31.5111   36.5312   52.0845 H   0  0  0  0  0  0  0  0  0  0  0  0
   32.3555   37.0742   53.5284 H   0  0  0  0  0  0  0  0  0  0  0  0
   29.6023   34.2520   49.6133 H   0  0  0  0  0  0  0  0  0  0  0  0
   30.0314   32.7417   48.7890 H   0  0  0  0  0  0  0  0  0  0  0  0
   30.1556   34.2975   47.9284 H   0  0  0  0  0  0  0  0  0  0  0  0
   35.8797   33.3366   48.6063 H   0  0  0  0  0  0  0  0  0  0  0  0
   34.7662   32.7926   47.3550 H   0  0  0  0  0  0  0  0  0  0  0  0
  1  2  1  0  0  0  0
  1 12  1  0  0  0  0
  1 13  1  0  0  0  0
  1 14  1  0  0  0  0
  2  3  1  0  0  0  0
  2 15  1  0  0  0  0
  2 16  1  0  0  0  0
  3  4  1  0  0  0  0
  4  5  2  0  0  0  0
  4  6  1  0  0  0  0
  5 10  1  0  0  0  0
  6  7  2  0  0  0  0
  7  8  1  0  0  0  0
  7  9  1  0  0  0  0
  8 17  1  0  0  0  0
  8 18  1  0  0  0  0
  8 19  1  0  0  0  0
  9 10  2  0  0  0  0
 10 11  1  0  0  0  0
 11 20  1  0  0  0  0
 11 21  1  0  0  0  0
M  END
$$$$
