B2K
 OpenBabel04091910553D

 31 32  0  0  0  0  0  0  0  0999 V2000
   63.7742   13.5067   25.2738 C   0  0  0  0  0  0  0  0  0  0  0  0
   63.2055   14.7237   24.8947 C   0  0  0  0  0  0  0  0  0  0  0  0
   62.1683   14.7672   23.9538 C   0  0  0  0  0  0  0  0  0  0  0  0
   61.5814   16.0898   23.5486 C   0  0  0  0  0  0  0  0  0  0  0  0
   61.6912   13.5678   23.4079 C   0  0  0  0  0  0  0  0  0  0  0  0
   62.2411   12.3418   23.7983 C   0  0  0  0  0  0  0  0  0  0  0  0
   63.2982   12.3195   24.7139 C   0  0  0  0  0  0  0  0  0  0  0  0
   64.0461   10.7764   25.2035 S   0  0  0  0  0  0  0  0  0  0  0  0
   63.2799    9.7176   24.5589 O   0  0  0  0  0  0  0  0  0  0  0  0
   64.1605   10.7936   26.6527 O   0  0  0  0  0  0  0  0  0  0  0  0
   65.6813   10.7365   24.4779 C   0  0  0  0  0  0  0  0  0  0  0  0
   66.6717   11.2549   25.2435 N   0  0  0  0  0  0  0  0  0  0  0  0
   65.8574   10.1788   23.2331 C   0  0  0  0  0  0  0  0  0  0  0  0
   67.1527   10.1745   22.7756 C   0  0  0  0  0  0  0  0  0  0  0  0
   67.4704    9.5963   21.4255 C   0  0  0  0  0  0  0  0  0  0  0  0
   68.1706   10.6798   23.5005 N   0  0  0  0  0  0  0  0  0  0  0  0
   67.8965   11.2022   24.7031 C   0  0  0  0  0  0  0  0  0  0  0  0
   68.9339   11.7448   25.3983 N   0  0  0  0  0  0  0  0  0  0  0  0
   64.5810   13.4913   26.0038 H   0  0  0  0  0  0  0  0  0  0  0  0
   63.5771   15.6446   25.3405 H   0  0  0  0  0  0  0  0  0  0  0  0
   60.7809   15.9674   22.8115 H   0  0  0  0  0  0  0  0  0  0  0  0
   62.3542   16.7230   23.1010 H   0  0  0  0  0  0  0  0  0  0  0  0
   61.1591   16.6009   24.4198 H   0  0  0  0  0  0  0  0  0  0  0  0
   60.8828   13.5816   22.6786 H   0  0  0  0  0  0  0  0  0  0  0  0
   61.8341   11.4215   23.3844 H   0  0  0  0  0  0  0  0  0  0  0  0
   65.0356    9.7709   22.6563 H   0  0  0  0  0  0  0  0  0  0  0  0
   68.5421    9.6457   21.2123 H   0  0  0  0  0  0  0  0  0  0  0  0
   66.9407   10.1493   20.6423 H   0  0  0  0  0  0  0  0  0  0  0  0
   67.1641    8.5457   21.3850 H   0  0  0  0  0  0  0  0  0  0  0  0
   68.7825   12.0080   26.3557 H   0  0  0  0  0  0  0  0  0  0  0  0
   69.8559   11.5833   25.0260 H   0  0  0  0  0  0  0  0  0  0  0  0
  1  2  2  0  0  0  0
  1  7  1  0  0  0  0
  1 19  1  0  0  0  0
  2  3  1  0  0  0  0
  2 20  1  0  0  0  0
  3  4  1  0  0  0  0
  3  5  2  0  0  0  0
  4 21  1  0  0  0  0
  4 22  1  0  0  0  0
  4 23  1  0  0  0  0
  5  6  1  0  0  0  0
  5 24  1  0  0  0  0
  6  7  2  0  0  0  0
  6 25  1  0  0  0  0
  7  8  1  0  0  0  0
  8  9  2  0  0  0  0
  8 10  2  0  0  0  0
  8 11  1  0  0  0  0
 11 12  2  0  0  0  0
 11 13  1  0  0  0  0
 12 17  1  0  0  0  0
 13 14  2  0  0  0  0
 13 26  1  0  0  0  0
 14 15  1  0  0  0  0
 14 16  1  0  0  0  0
 15 27  1  0  0  0  0
 15 28  1  0  0  0  0
 15 29  1  0  0  0  0
 16 17  2  0  0  0  0
 17 18  1  0  0  0  0
 18 30  1  0  0  0  0
 18 31  1  0  0  0  0
M  END
$$$$
