B2L
 OpenBabel04091910553D

 36 39  0  0  0  0  0  0  0  0999 V2000
   -3.2234   11.3097    1.5323 C   0  0  0  0  0  0  0  0  0  0  0  0
   -3.8371   10.1651    2.1225 O   0  0  0  0  0  0  0  0  0  0  0  0
   -3.8211    9.0410    1.2435 C   0  0  0  0  0  0  0  0  0  0  0  0
   -2.4171    8.6965    0.8178 C   0  0  0  0  0  0  0  0  0  0  0  0
   -2.1018    7.3857    0.4437 C   0  0  0  0  0  0  0  0  0  0  0  0
   -0.8107    7.0706    0.0457 C   0  0  0  0  0  0  0  0  0  0  0  0
    0.1654    8.0689    0.0038 C   0  0  0  0  0  0  0  0  0  0  0  0
   -0.1212    9.4193    0.3275 C   0  0  0  0  0  0  0  0  0  0  0  0
   -1.4433    9.7109    0.7515 C   0  0  0  0  0  0  0  0  0  0  0  0
   -1.8034   11.0177    1.1212 C   0  0  0  0  0  0  0  0  0  0  0  0
   -0.8679   12.0502    1.0603 C   0  0  0  0  0  0  0  0  0  0  0  0
    0.4311   11.7831    0.6425 C   0  0  0  0  0  0  0  0  0  0  0  0
    0.8280   10.4860    0.2567 C   0  0  0  0  0  0  0  0  0  0  0  0
    2.2073   10.3169   -0.2397 C   0  0  0  0  0  0  0  0  0  0  0  0
    3.1859   10.8097    0.5506 N   0  0  0  0  0  0  0  0  0  0  0  0
    2.4694    9.7732   -1.4823 C   0  0  0  0  0  0  0  0  0  0  0  0
    3.7988    9.6906   -1.8449 C   0  0  0  0  0  0  0  0  0  0  0  0
    4.1706    9.0751   -3.1589 C   0  0  0  0  0  0  0  0  0  0  0  0
    4.7909   10.1565   -1.0603 N   0  0  0  0  0  0  0  0  0  0  0  0
    4.4361   10.7305    0.0939 C   0  0  0  0  0  0  0  0  0  0  0  0
    5.4257   11.3178    0.8470 N   0  0  0  0  0  0  0  0  0  0  0  0
   -3.2395   12.1028    2.2876 H   0  0  0  0  0  0  0  0  0  0  0  0
   -3.8095   11.6451    0.6683 H   0  0  0  0  0  0  0  0  0  0  0  0
   -4.4477    9.2434    0.3672 H   0  0  0  0  0  0  0  0  0  0  0  0
   -4.2614    8.2036    1.7953 H   0  0  0  0  0  0  0  0  0  0  0  0
   -2.8571    6.6048    0.4774 H   0  0  0  0  0  0  0  0  0  0  0  0
   -0.5569    6.0501   -0.2282 H   0  0  0  0  0  0  0  0  0  0  0  0
    1.1694    7.7635   -0.2817 H   0  0  0  0  0  0  0  0  0  0  0  0
   -1.1406   13.0660    1.3373 H   0  0  0  0  0  0  0  0  0  0  0  0
    1.1485   12.6023    0.5993 H   0  0  0  0  0  0  0  0  0  0  0  0
    1.6824    9.4294   -2.1376 H   0  0  0  0  0  0  0  0  0  0  0  0
    5.2533    9.1016   -3.3122 H   0  0  0  0  0  0  0  0  0  0  0  0
    3.6930    9.6202   -3.9799 H   0  0  0  0  0  0  0  0  0  0  0  0
    3.8447    8.0299   -3.1887 H   0  0  0  0  0  0  0  0  0  0  0  0
    5.1576   11.4437    1.8112 H   0  0  0  0  0  0  0  0  0  0  0  0
    6.3453   10.9698    0.6261 H   0  0  0  0  0  0  0  0  0  0  0  0
  1  2  1  0  0  0  0
  1 10  1  0  0  0  0
  1 22  1  0  0  0  0
  1 23  1  0  0  0  0
  2  3  1  0  0  0  0
  3  4  1  0  0  0  0
  3 24  1  0  0  0  0
  3 25  1  0  0  0  0
  4  5  2  0  0  0  0
  4  9  1  0  0  0  0
  5  6  1  0  0  0  0
  5 26  1  0  0  0  0
  6  7  2  0  0  0  0
  6 27  1  0  0  0  0
  7  8  1  0  0  0  0
  7 28  1  0  0  0  0
  8  9  2  0  0  0  0
  8 13  1  0  0  0  0
  9 10  1  0  0  0  0
 10 11  2  0  0  0  0
 11 12  1  0  0  0  0
 11 29  1  0  0  0  0
 12 13  2  0  0  0  0
 12 30  1  0  0  0  0
 13 14  1  0  0  0  0
 14 15  2  0  0  0  0
 14 16  1  0  0  0  0
 15 20  1  0  0  0  0
 16 17  2  0  0  0  0
 16 31  1  0  0  0  0
 17 18  1  0  0  0  0
 17 19  1  0  0  0  0
 18 32  1  0  0  0  0
 18 33  1  0  0  0  0
 18 34  1  0  0  0  0
 19 20  2  0  0  0  0
 20 21  1  0  0  0  0
 21 35  1  0  0  0  0
 21 36  1  0  0  0  0
M  END
$$$$
