B3P
 OpenBabel04091911103D

 47 46  0  0  0  0  0  0  0  0999 V2000
   61.1393   38.1733   48.2760 C   0  0  0  0  0  0  0  0  0  0  0  0
   60.3649   38.9813   47.2582 C   0  0  0  0  0  0  0  0  0  0  0  0
   60.2243   37.5428   49.3269 C   0  0  0  0  0  0  0  0  0  0  0  0
   61.0866   36.8151   50.2751 N   0  3  0  0  0  0  0  0  0  0  0  0
   60.4837   35.5951   50.9686 C   0  0  0  0  0  0  0  0  0  0  0  0
   61.5225   35.1158   51.9918 C   0  0  0  0  0  0  0  0  0  0  0  0
   59.2001   36.0181   51.7259 C   0  0  0  0  0  0  0  0  0  0  0  0
   60.2913   34.4899   49.9157 C   0  0  0  0  0  0  0  0  0  0  0  0
   59.3847   38.1555   46.5255 N   0  3  0  0  0  0  0  0  0  0  0  0
   59.7688   37.3391   45.2772 C   0  0  0  0  0  0  0  0  0  0  0  0
   60.8530   36.2798   45.5563 C   0  0  0  0  0  0  0  0  0  0  0  0
   60.2885   38.2715   44.1838 C   0  0  0  0  0  0  0  0  0  0  0  0
   58.4044   36.7234   44.8385 C   0  0  0  0  0  0  0  0  0  0  0  0
   60.4968   35.3599   46.5709 O   0  0  0  0  0  0  0  0  0  0  0  0
   59.3870   39.3534   43.9860 O   0  0  0  0  0  0  0  0  0  0  0  0
   58.5882   35.6849   43.9152 O   0  0  0  0  0  0  0  0  0  0  0  0
   61.9014   36.2371   52.7918 O   0  0  0  0  0  0  0  0  0  0  0  0
   58.4219   34.8906   52.0638 O   0  0  0  0  0  0  0  0  0  0  0  0
   59.0036   34.5679   49.3163 O   0  0  0  0  0  0  0  0  0  0  0  0
   61.8805   38.8059   48.7739 H   0  0  0  0  0  0  0  0  0  0  0  0
   61.7141   37.3705   47.8024 H   0  0  0  0  0  0  0  0  0  0  0  0
   61.0288   39.4574   46.5332 H   0  0  0  0  0  0  0  0  0  0  0  0
   59.7930   39.7739   47.7619 H   0  0  0  0  0  0  0  0  0  0  0  0
   59.5375   36.8336   48.8774 H   0  0  0  0  0  0  0  0  0  0  0  0
   59.6529   38.3012   49.8636 H   0  0  0  0  0  0  0  0  0  0  0  0
   61.9547   36.5128   49.8454 H   0  0  0  0  0  0  0  0  0  0  0  0
   62.4248   34.7365   51.4985 H   0  0  0  0  0  0  0  0  0  0  0  0
   61.0999   34.3273   52.6254 H   0  0  0  0  0  0  0  0  0  0  0  0
   58.5639   36.6749   51.1207 H   0  0  0  0  0  0  0  0  0  0  0  0
   59.4389   36.6013   52.6330 H   0  0  0  0  0  0  0  0  0  0  0  0
   60.4250   33.4741   50.3454 H   0  0  0  0  0  0  0  0  0  0  0  0
   61.0362   34.5801   49.1185 H   0  0  0  0  0  0  0  0  0  0  0  0
   58.8875   37.4756   47.1388 H   0  0  0  0  0  0  0  0  0  0  0  0
   61.7810   36.7619   45.8999 H   0  0  0  0  0  0  0  0  0  0  0  0
   61.1199   35.7560   44.6378 H   0  0  0  0  0  0  0  0  0  0  0  0
   60.3796   37.7177   43.2263 H   0  0  0  0  0  0  0  0  0  0  0  0
   61.3076   38.6563   44.4021 H   0  0  0  0  0  0  0  0  0  0  0  0
   57.7387   37.4781   44.4185 H   0  0  0  0  0  0  0  0  0  0  0  0
   57.8822   36.2937   45.7046 H   0  0  0  0  0  0  0  0  0  0  0  0
   61.0788   34.5707   46.4458 H   0  0  0  0  0  0  0  0  0  0  0  0
   59.5222   40.0471   44.6402 H   0  0  0  0  0  0  0  0  0  0  0  0
   58.9488   36.0298   43.0767 H   0  0  0  0  0  0  0  0  0  0  0  0
   62.4181   35.8930   53.5506 H   0  0  0  0  0  0  0  0  0  0  0  0
   58.8543   34.3989   52.7900 H   0  0  0  0  0  0  0  0  0  0  0  0
   58.3540   34.2784   49.9874 H   0  0  0  0  0  0  0  0  0  0  0  0
   61.3981   37.4375   51.0650 H   0  0  0  0  0  0  0  0  0  0  0  0
   58.6141   38.7864   46.2212 H   0  0  0  0  0  0  0  0  0  0  0  0
  1  2  1  0  0  0  0
  1  3  1  0  0  0  0
  1 20  1  0  0  0  0
  1 21  1  0  0  0  0
  2  9  1  0  0  0  0
  2 22  1  0  0  0  0
  2 23  1  0  0  0  0
  3  4  1  0  0  0  0
  3 24  1  0  0  0  0
  3 25  1  0  0  0  0
  4  5  1  0  0  0  0
  4 26  1  0  0  0  0
  4 46  1  0  0  0  0
  5  6  1  0  0  0  0
  5  7  1  0  0  0  0
  5  8  1  0  0  0  0
  6 17  1  0  0  0  0
  6 27  1  0  0  0  0
  6 28  1  0  0  0  0
  7 18  1  0  0  0  0
  7 29  1  0  0  0  0
  7 30  1  0  0  0  0
  8 19  1  0  0  0  0
  8 31  1  0  0  0  0
  8 32  1  0  0  0  0
  9 10  1  0  0  0  0
  9 33  1  0  0  0  0
  9 47  1  0  0  0  0
 10 11  1  0  0  0  0
 10 12  1  0  0  0  0
 10 13  1  0  0  0  0
 11 14  1  0  0  0  0
 11 34  1  0  0  0  0
 11 35  1  0  0  0  0
 12 15  1  0  0  0  0
 12 36  1  0  0  0  0
 12 37  1  0  0  0  0
 13 16  1  0  0  0  0
 13 38  1  0  0  0  0
 13 39  1  0  0  0  0
 14 40  1  0  0  0  0
 15 41  1  0  0  0  0
 16 42  1  0  0  0  0
 17 43  1  0  0  0  0
 18 44  1  0  0  0  0
 19 45  1  0  0  0  0
M  CHG  2   4   1   9   1
M  END
$$$$
