B49
 OpenBabel04091913493D

 57 59  0  0  1  0  0  0  0  0999 V2000
   10.5418  -11.6312   -2.8450 C   0  0  0  0  0  0  0  0  0  0  0  0
    0.8180  -11.2261   -3.0875 C   0  0  0  0  0  0  0  0  0  0  0  0
    1.7430  -11.3091   -4.1406 C   0  0  0  0  0  0  0  0  0  0  0  0
    2.6207  -11.3010   -1.4563 C   0  0  0  0  0  0  0  0  0  0  0  0
    7.9445  -11.5115   -0.1900 C   0  0  2  0  0  0  0  0  0  0  0  0
    1.2615  -11.2203   -1.7643 C   0  0  0  0  0  0  0  0  0  0  0  0
    3.5263  -11.3835   -2.5099 C   0  0  0  0  0  0  0  0  0  0  0  0
    5.0050  -11.4695   -2.5370 C   0  0  0  0  0  0  0  0  0  0  0  0
    5.3656  -11.5431   -4.0049 C   0  0  0  0  0  0  0  0  0  0  0  0
   10.4552  -11.5854    0.3924 C   0  0  0  0  0  0  0  0  0  0  0  0
    7.3788  -11.4766    1.1964 C   0  0  0  0  0  0  0  0  0  0  0  0
    5.7769  -11.4636   -1.4592 C   0  0  0  0  0  0  0  0  0  0  0  0
    9.3803  -11.5992   -1.9399 C   0  0  1  0  0  0  0  0  0  0  0  0
    3.0783  -11.3878   -3.8210 C   0  0  0  0  0  0  0  0  0  0  0  0
    7.1966  -11.5106   -1.3485 C   0  0  1  0  0  0  0  0  0  0  0  0
    9.3350  -11.5793   -0.5504 C   0  0  2  0  0  0  0  0  0  0  0  0
    8.0724  -11.5536   -2.4198 N   0  3  0  0  0  0  0  0  0  0  0  0
    4.1612  -11.4754   -4.6964 N   0  0  0  0  0  0  0  0  0  0  0  0
   11.6360  -12.1954    0.0012 N   0  0  0  0  0  0  0  0  0  0  0  0
    6.4570  -11.6424   -4.4922 O   0  0  0  0  0  0  0  0  0  0  0  0
   10.3736  -11.0698    1.5050 O   0  0  0  0  0  0  0  0  0  0  0  0
    0.3711  -11.1377   -0.7658 F   0  0  0  0  0  0  0  0  0  0  0  0
   12.7782  -12.2342    0.8977 C   0  0  0  0  0  0  0  0  0  0  0  0
   13.6044  -10.9707    0.7561 C   0  0  0  0  0  0  0  0  0  0  0  0
   14.5922  -11.1383   -0.3849 N   0  3  0  0  0  0  0  0  0  0  0  0
   14.2304  -10.4624   -1.6824 C   0  0  0  0  0  0  0  0  0  0  0  0
   16.0070  -10.8646    0.0518 C   0  0  0  0  0  0  0  0  0  0  0  0
   16.7768  -12.1630    0.0379 C   0  0  0  0  0  0  0  0  0  0  0  0
   13.4539   -9.1869   -1.4891 C   0  0  0  0  0  0  0  0  0  0  0  0
   10.2523  -11.6423   -3.8923 H   0  0  0  0  0  0  0  0  0  0  0  0
   11.1284  -12.5352   -2.6515 H   0  0  0  0  0  0  0  0  0  0  0  0
   11.1804  -10.7608   -2.6578 H   0  0  0  0  0  0  0  0  0  0  0  0
   -0.2486  -11.1650   -3.2955 H   0  0  0  0  0  0  0  0  0  0  0  0
    1.3762  -11.3162   -5.1626 H   0  0  0  0  0  0  0  0  0  0  0  0
    2.9472  -11.2885   -0.4402 H   0  0  0  0  0  0  0  0  0  0  0  0
    6.2846  -11.4385    1.1780 H   0  0  0  0  0  0  0  0  0  0  0  0
    7.7257  -10.5911    1.7338 H   0  0  0  0  0  0  0  0  0  0  0  0
    7.6630  -12.3751    1.7512 H   0  0  0  0  0  0  0  0  0  0  0  0
    5.2659  -11.4105   -0.4997 H   0  0  0  0  0  0  0  0  0  0  0  0
    7.8131  -11.5595   -3.4045 H   0  0  0  0  0  0  0  0  0  0  0  0
    4.1412  -11.5001   -5.7031 H   0  0  0  0  0  0  0  0  0  0  0  0
   11.6882  -12.6253   -0.9056 H   0  0  0  0  0  0  0  0  0  0  0  0
   13.3850  -13.1168    0.6608 H   0  0  0  0  0  0  0  0  0  0  0  0
   12.4478  -12.3104    1.9335 H   0  0  0  0  0  0  0  0  0  0  0  0
   14.1623  -10.7551    1.6604 H   0  0  0  0  0  0  0  0  0  0  0  0
   12.9746  -10.1244    0.5532 H   0  0  0  0  0  0  0  0  0  0  0  0
   13.6508  -11.1870   -2.2571 H   0  0  0  0  0  0  0  0  0  0  0  0
   15.1641  -10.2570   -2.2079 H   0  0  0  0  0  0  0  0  0  0  0  0
   15.9852  -10.4372    1.0527 H   0  0  0  0  0  0  0  0  0  0  0  0
   16.4419  -10.1427   -0.6351 H   0  0  0  0  0  0  0  0  0  0  0  0
   17.8047  -11.9724    0.3518 H   0  0  0  0  0  0  0  0  0  0  0  0
   16.7905  -12.5953   -0.9690 H   0  0  0  0  0  0  0  0  0  0  0  0
   16.3284  -12.8906    0.7242 H   0  0  0  0  0  0  0  0  0  0  0  0
   13.2229   -8.7506   -2.4582 H   0  0  0  0  0  0  0  0  0  0  0  0
   14.0221   -8.4688   -0.8915 H   0  0  0  0  0  0  0  0  0  0  0  0
   12.4900   -9.3740   -1.0073 H   0  0  0  0  0  0  0  0  0  0  0  0
   14.5755  -12.1430   -0.6052 H   0  0  0  0  0  0  0  0  0  0  0  0
  1 30  1  0  0  0  0
  1 31  1  0  0  0  0
  1 32  1  0  0  0  0
  2  3  2  0  0  0  0
  2  6  1  0  0  0  0
  2 33  1  0  0  0  0
  3 14  1  0  0  0  0
  3 34  1  0  0  0  0
  4  6  2  0  0  0  0
  4  7  1  0  0  0  0
  4 35  1  0  0  0  0
  5 11  1  1  0  0  0
  5 15  1  0  0  0  0
  5 16  1  0  0  0  0
  6 22  1  0  0  0  0
  7  8  1  0  0  0  0
  7 14  2  0  0  0  0
  8  9  1  0  0  0  0
  8 12  2  0  0  0  0
  9 18  1  0  0  0  0
  9 20  2  0  0  0  0
 10 19  1  0  0  0  0
 10 21  2  0  0  0  0
 11 36  1  0  0  0  0
 11 37  1  0  0  0  0
 11 38  1  0  0  0  0
 12 39  1  0  0  0  0
 13  1  1  6  0  0  0
 13 16  1  0  0  0  0
 13 17  1  0  0  0  0
 14 18  1  0  0  0  0
 15 12  1  6  0  0  0
 15 17  1  0  0  0  0
 16 10  1  6  0  0  0
 17 40  1  0  0  0  0
 18 41  1  0  0  0  0
 19 23  1  0  0  0  0
 19 42  1  0  0  0  0
 23 24  1  0  0  0  0
 23 43  1  0  0  0  0
 23 44  1  0  0  0  0
 24 25  1  0  0  0  0
 24 45  1  0  0  0  0
 24 46  1  0  0  0  0
 25 26  1  0  0  0  0
 25 27  1  0  0  0  0
 25 57  1  0  0  0  0
 26 29  1  0  0  0  0
 26 47  1  0  0  0  0
 26 48  1  0  0  0  0
 27 28  1  0  0  0  0
 27 49  1  0  0  0  0
 27 50  1  0  0  0  0
 28 51  1  0  0  0  0
 28 52  1  0  0  0  0
 28 53  1  0  0  0  0
 29 54  1  0  0  0  0
 29 55  1  0  0  0  0
 29 56  1  0  0  0  0
M  CHG  2  17   1  25   1
M  END
$$$$
