B55
 OpenBabel04091914483D

 16 17  0  0  0  0  0  0  0  0999 V2000
    0.8369   -1.6324   11.1168 O   0  0  0  0  0  0  0  0  0  0  0  0
    1.4542   -2.1306   12.0524 C   0  0  0  0  0  0  0  0  0  0  0  0
    1.5931   -1.5686   13.3519 C   0  0  0  0  0  0  0  0  0  0  0  0
    1.1275   -0.4190   13.9185 N   0  3  0  0  0  0  0  0  0  0  0  0
    2.1063   -3.3490   11.9441 N   0  3  0  0  0  0  0  0  0  0  0  0
    2.8040   -3.9546   12.9656 C   0  0  0  0  0  0  0  0  0  0  0  0
    3.3388   -5.0910   12.6738 N   0  0  0  0  0  0  0  0  0  0  0  0
    2.8964   -3.3572   14.1887 N   0  3  0  0  0  0  0  0  0  0  0  0
    2.2884   -2.1765   14.3565 C   0  0  0  0  0  0  0  0  0  0  0  0
    2.2759   -1.4730   15.5091 N   0  0  0  0  0  0  0  0  0  0  0  0
    1.5542   -0.4052   15.2279 C   0  0  0  0  0  0  0  0  0  0  0  0
    1.1388    0.8553   16.2602 S   0  0  0  0  0  0  0  0  0  0  0  0
    0.5588    0.3054   13.5068 H   0  0  0  0  0  0  0  0  0  0  0  0
    2.0600   -3.8335   11.0643 H   0  0  0  0  0  0  0  0  0  0  0  0
    3.8267   -5.4380   13.5052 H   0  0  0  0  0  0  0  0  0  0  0  0
    3.3727   -3.7774   14.9697 H   0  0  0  0  0  0  0  0  0  0  0  0
  1  2  2  0  0  0  0
  2  3  1  0  0  0  0
  2  5  1  0  0  0  0
  3  4  2  0  0  0  0
  3  9  1  0  0  0  0
  4 11  1  0  0  0  0
  4 13  1  0  0  0  0
  5  6  1  0  0  0  0
  5 14  1  0  0  0  0
  6  7  2  0  0  0  0
  6  8  1  0  0  0  0
  7 15  1  0  0  0  0
  8  9  2  0  0  0  0
  8 16  1  0  0  0  0
  9 10  1  0  0  0  0
 10 11  2  0  0  0  0
 11 12  1  0  0  0  0
M  CHG  3   4   1   5   1   8   1
M  END
$$$$
