B72
 OpenBabel04091914033D

 47 48  0  0  0  0  0  0  0  0999 V2000
  -19.4837   -2.2194    2.3840 O   0  0  0  0  0  0  0  0  0  0  0  0
  -20.7075   -1.9301    2.5567 C   0  0  0  0  0  0  0  0  0  0  0  0
  -21.6533   -2.6767    2.9284 O   0  0  0  0  0  0  0  0  0  0  0  0
  -21.0688   -0.4583    2.2390 C   0  0  0  0  0  0  0  0  0  0  0  0
  -22.3118   -0.3486    1.4963 O   0  0  0  0  0  0  0  0  0  0  0  0
  -22.0536   -0.2137    0.1562 C   0  0  0  0  0  0  0  0  0  0  0  0
  -21.0250   -0.9176   -0.4606 C   0  0  0  0  0  0  0  0  0  0  0  0
  -20.6732   -0.6664   -1.7779 C   0  0  0  0  0  0  0  0  0  0  0  0
  -19.5149   -1.4194   -2.3603 C   0  0  0  0  0  0  0  0  0  0  0  0
  -21.3927    0.2880   -2.5126 C   0  0  0  0  0  0  0  0  0  0  0  0
  -22.4810    0.9664   -1.9102 C   0  0  0  0  0  0  0  0  0  0  0  0
  -22.8040    0.7049   -0.5675 C   0  0  0  0  0  0  0  0  0  0  0  0
  -23.2941    1.9774   -2.6671 C   0  0  0  0  0  0  0  0  0  0  0  0
  -21.0127    0.5200   -3.9595 C   0  0  0  0  0  0  0  0  0  0  0  0
  -21.7983   -0.2440   -4.9768 C   0  0  0  0  0  0  0  0  0  0  0  0
  -21.6740    0.1383   -6.3274 C   0  0  0  0  0  0  0  0  0  0  0  0
  -22.3748   -0.5083   -7.3575 C   0  0  0  0  0  0  0  0  0  0  0  0
  -22.2067   -0.0412   -8.7951 C   0  0  0  0  0  0  0  0  0  0  0  0
  -22.1090    1.4805   -8.8634 C   0  0  0  0  0  0  0  0  0  0  0  0
  -20.9637   -0.6695   -9.4195 C   0  0  0  0  0  0  0  0  0  0  0  0
  -23.1944   -1.5863   -7.0326 C   0  0  0  0  0  0  0  0  0  0  0  0
  -23.8669   -2.2458   -8.0221 O   0  0  0  0  0  0  0  0  0  0  0  0
  -23.3308   -1.9967   -5.7046 C   0  0  0  0  0  0  0  0  0  0  0  0
  -22.6218   -1.3414   -4.6920 C   0  0  0  0  0  0  0  0  0  0  0  0
  -20.2488    0.0390    1.6914 H   0  0  0  0  0  0  0  0  0  0  0  0
  -21.1861    0.1050    3.1670 H   0  0  0  0  0  0  0  0  0  0  0  0
  -20.4400   -1.6428    0.0987 H   0  0  0  0  0  0  0  0  0  0  0  0
  -19.0519   -2.0915   -1.6322 H   0  0  0  0  0  0  0  0  0  0  0  0
  -18.7407   -0.7212   -2.6939 H   0  0  0  0  0  0  0  0  0  0  0  0
  -19.8649   -2.0201   -3.2041 H   0  0  0  0  0  0  0  0  0  0  0  0
  -23.6073    1.2423   -0.0682 H   0  0  0  0  0  0  0  0  0  0  0  0
  -22.9642    2.0859   -3.7021 H   0  0  0  0  0  0  0  0  0  0  0  0
  -23.2061    2.9635   -2.2034 H   0  0  0  0  0  0  0  0  0  0  0  0
  -24.3412    1.6678   -2.7078 H   0  0  0  0  0  0  0  0  0  0  0  0
  -19.9526    0.2924   -4.1083 H   0  0  0  0  0  0  0  0  0  0  0  0
  -21.0692    1.5945   -4.1670 H   0  0  0  0  0  0  0  0  0  0  0  0
  -21.0089    0.9662   -6.5303 H   0  0  0  0  0  0  0  0  0  0  0  0
  -23.0868   -0.3410   -9.3827 H   0  0  0  0  0  0  0  0  0  0  0  0
  -22.0169    1.8245   -9.8952 H   0  0  0  0  0  0  0  0  0  0  0  0
  -21.2232    1.8461   -8.3345 H   0  0  0  0  0  0  0  0  0  0  0  0
  -22.9911    1.9422   -8.4068 H   0  0  0  0  0  0  0  0  0  0  0  0
  -21.0263   -1.7621   -9.4153 H   0  0  0  0  0  0  0  0  0  0  0  0
  -20.0635   -0.3794   -8.8671 H   0  0  0  0  0  0  0  0  0  0  0  0
  -20.8453   -0.3381  -10.4563 H   0  0  0  0  0  0  0  0  0  0  0  0
  -24.3763   -2.9632   -7.6049 H   0  0  0  0  0  0  0  0  0  0  0  0
  -23.9429   -2.8435   -5.4379 H   0  0  0  0  0  0  0  0  0  0  0  0
  -22.7351   -1.6903   -3.6691 H   0  0  0  0  0  0  0  0  0  0  0  0
  1  2  2  0  0  0  0
  2  3  1  0  0  0  0
  2  4  1  0  0  0  0
  4  5  1  0  0  0  0
  4 25  1  0  0  0  0
  4 26  1  0  0  0  0
  5  6  1  0  0  0  0
  6  7  2  0  0  0  0
  6 12  1  0  0  0  0
  7  8  1  0  0  0  0
  7 27  1  0  0  0  0
  8  9  1  0  0  0  0
  8 10  2  0  0  0  0
  9 28  1  0  0  0  0
  9 29  1  0  0  0  0
  9 30  1  0  0  0  0
 10 11  1  0  0  0  0
 10 14  1  0  0  0  0
 11 12  2  0  0  0  0
 11 13  1  0  0  0  0
 12 31  1  0  0  0  0
 13 32  1  0  0  0  0
 13 33  1  0  0  0  0
 13 34  1  0  0  0  0
 14 15  1  0  0  0  0
 14 35  1  0  0  0  0
 14 36  1  0  0  0  0
 15 16  2  0  0  0  0
 15 24  1  0  0  0  0
 16 17  1  0  0  0  0
 16 37  1  0  0  0  0
 17 18  1  0  0  0  0
 17 21  2  0  0  0  0
 18 19  1  0  0  0  0
 18 20  1  0  0  0  0
 18 38  1  0  0  0  0
 19 39  1  0  0  0  0
 19 40  1  0  0  0  0
 19 41  1  0  0  0  0
 20 42  1  0  0  0  0
 20 43  1  0  0  0  0
 20 44  1  0  0  0  0
 21 22  1  0  0  0  0
 21 23  1  0  0  0  0
 22 45  1  0  0  0  0
 23 24  2  0  0  0  0
 23 46  1  0  0  0  0
 24 47  1  0  0  0  0
M  END
$$$$
