B85
 OpenBabel04091913123D

 18 18  0  0  0  0  0  0  0  0999 V2000
    1.5018   15.7685   19.4564 C   0  0  0  0  0  0  0  0  0  0  0  0
    2.0489   17.0502   19.4054 C   0  0  0  0  0  0  0  0  0  0  0  0
    2.3951   17.6084   18.1753 C   0  0  0  0  0  0  0  0  0  0  0  0
    2.1922   16.8845   17.0007 C   0  0  0  0  0  0  0  0  0  0  0  0
    1.6555   15.5953   17.0579 C   0  0  0  0  0  0  0  0  0  0  0  0
    1.3114   15.0207   18.2832 C   0  0  0  0  0  0  0  0  0  0  0  0
    0.7701   13.6078   18.4048 C   0  0  0  0  0  0  0  0  0  0  0  0
    0.3459   12.5755   16.8746 P   0  0  0  0  0  0  0  0  0  0  0  0
    1.6845   12.4077   16.1630 O   0  0  0  0  0  0  0  0  0  0  0  0
   -0.2174   11.2992   17.4918 O   0  0  0  0  0  0  0  0  0  0  0  0
   -0.6795   13.4366   16.1380 O   0  0  0  0  0  0  0  0  0  0  0  0
    1.2242   15.3304   20.4121 H   0  0  0  0  0  0  0  0  0  0  0  0
    2.2029   17.6055   20.3248 H   0  0  0  0  0  0  0  0  0  0  0  0
    2.8225   18.6049   18.1322 H   0  0  0  0  0  0  0  0  0  0  0  0
    2.4515   17.3036   16.0367 H   0  0  0  0  0  0  0  0  0  0  0  0
    1.4975   15.0245   16.1404 H   0  0  0  0  0  0  0  0  0  0  0  0
   -0.1578   13.6414   18.9858 H   0  0  0  0  0  0  0  0  0  0  0  0
    1.5008   13.0093   18.9655 H   0  0  0  0  0  0  0  0  0  0  0  0
  1  2  2  0  0  0  0
  1  6  1  0  0  0  0
  1 12  1  0  0  0  0
  2  3  1  0  0  0  0
  2 13  1  0  0  0  0
  3  4  2  0  0  0  0
  3 14  1  0  0  0  0
  4  5  1  0  0  0  0
  4 15  1  0  0  0  0
  5  6  2  0  0  0  0
  5 16  1  0  0  0  0
  6  7  1  0  0  0  0
  7  8  1  0  0  0  0
  7 17  1  0  0  0  0
  7 18  1  0  0  0  0
  8  9  2  0  0  0  0
  8 10  1  0  0  0  0
  8 11  1  0  0  0  0
M  END
$$$$
