B95
 OpenBabel04091913283D

 39 41  0  0  0  0  0  0  0  0999 V2000
   -5.6115  -36.4633   -0.1225 O   0  0  0  0  0  0  0  0  0  0  0  0
   -0.0143  -36.5846    0.3964 Br  0  0  0  0  0  0  0  0  0  0  0  0
   -0.6677  -39.3066    3.4600 C   0  0  0  0  0  0  0  0  0  0  0  0
   -1.8799  -38.9084    4.0213 C   0  0  0  0  0  0  0  0  0  0  0  0
   -5.1557  -39.1858    7.4335 C   0  0  0  0  0  0  0  0  0  0  0  0
   -5.8934  -38.2086    8.1045 C   0  0  0  0  0  0  0  0  0  0  0  0
   -0.1300  -38.6018    2.3844 C   0  0  0  0  0  0  0  0  0  0  0  0
   -2.5595  -37.8083    3.5002 C   0  0  0  0  0  0  0  0  0  0  0  0
   -5.1955  -39.3030    6.0402 C   0  0  0  0  0  0  0  0  0  0  0  0
   -6.6951  -37.3025    7.3958 C   0  0  0  0  0  0  0  0  0  0  0  0
   -6.7900  -35.3744    2.1884 C   0  0  0  0  0  0  0  0  0  0  0  0
   -7.5841  -36.6166    2.5924 C   0  0  0  0  0  0  0  0  0  0  0  0
   -3.3672  -36.2508    0.7229 C   0  0  0  0  0  0  0  0  0  0  0  0
   -6.2728  -38.2058    4.0271 N   0  3  0  0  0  0  0  0  0  0  0  0
   -5.3733  -35.6278    1.9889 N   0  0  0  0  0  0  0  0  0  0  0  0
   -7.4208  -36.6333    5.0894 N   0  0  0  0  0  0  0  0  0  0  0  0
   -2.7394  -36.0208    1.9857 O   0  0  0  0  0  0  0  0  0  0  0  0
   -4.8802  -36.1325    0.8138 C   0  0  0  0  0  0  0  0  0  0  0  0
   -0.8113  -37.5036    1.8529 C   0  0  0  0  0  0  0  0  0  0  0  0
   -7.1245  -37.1356    3.9075 C   0  0  0  0  0  0  0  0  0  0  0  0
   -2.0348  -37.1148    2.4082 C   0  0  0  0  0  0  0  0  0  0  0  0
   -6.0015  -38.3862    5.3602 C   0  0  0  0  0  0  0  0  0  0  0  0
   -6.7377  -37.3986    5.9997 C   0  0  0  0  0  0  0  0  0  0  0  0
   -0.1334  -40.1592    3.8728 H   0  0  0  0  0  0  0  0  0  0  0  0
   -2.2850  -39.4468    4.8735 H   0  0  0  0  0  0  0  0  0  0  0  0
   -4.5407  -39.8764    8.0093 H   0  0  0  0  0  0  0  0  0  0  0  0
   -5.8512  -38.1464    9.1899 H   0  0  0  0  0  0  0  0  0  0  0  0
    0.8278  -38.9103    1.9695 H   0  0  0  0  0  0  0  0  0  0  0  0
   -3.4897  -37.4841    3.9543 H   0  0  0  0  0  0  0  0  0  0  0  0
   -4.6303  -40.0676    5.5223 H   0  0  0  0  0  0  0  0  0  0  0  0
   -7.2714  -36.5423    7.9077 H   0  0  0  0  0  0  0  0  0  0  0  0
   -6.8720  -34.5913    2.9506 H   0  0  0  0  0  0  0  0  0  0  0  0
   -7.1987  -34.9765    1.2522 H   0  0  0  0  0  0  0  0  0  0  0  0
   -7.5162  -37.3943    1.8222 H   0  0  0  0  0  0  0  0  0  0  0  0
   -8.6429  -36.3454    2.6785 H   0  0  0  0  0  0  0  0  0  0  0  0
   -3.1456  -37.2415    0.3052 H   0  0  0  0  0  0  0  0  0  0  0  0
   -3.0176  -35.4832    0.0251 H   0  0  0  0  0  0  0  0  0  0  0  0
   -5.8864  -38.7420    3.2616 H   0  0  0  0  0  0  0  0  0  0  0  0
   -4.7250  -35.4601    2.7531 H   0  0  0  0  0  0  0  0  0  0  0  0
  1 18  2  0  0  0  0
  2 19  1  0  0  0  0
  3  4  2  0  0  0  0
  3  7  1  0  0  0  0
  3 24  1  0  0  0  0
  4  8  1  0  0  0  0
  4 25  1  0  0  0  0
  5  6  2  0  0  0  0
  5  9  1  0  0  0  0
  5 26  1  0  0  0  0
  6 10  1  0  0  0  0
  6 27  1  0  0  0  0
  7 19  2  0  0  0  0
  7 28  1  0  0  0  0
  8 21  2  0  0  0  0
  8 29  1  0  0  0  0
  9 22  2  0  0  0  0
  9 30  1  0  0  0  0
 10 23  2  0  0  0  0
 10 31  1  0  0  0  0
 11 12  1  0  0  0  0
 11 15  1  0  0  0  0
 11 32  1  0  0  0  0
 11 33  1  0  0  0  0
 12 20  1  0  0  0  0
 12 34  1  0  0  0  0
 12 35  1  0  0  0  0
 13 17  1  0  0  0  0
 13 18  1  0  0  0  0
 13 36  1  0  0  0  0
 13 37  1  0  0  0  0
 14 20  2  0  0  0  0
 14 22  1  0  0  0  0
 14 38  1  0  0  0  0
 15 18  1  0  0  0  0
 15 39  1  0  0  0  0
 16 20  1  0  0  0  0
 16 23  1  0  0  0  0
 17 21  1  0  0  0  0
 19 21  1  0  0  0  0
 22 23  1  0  0  0  0
M  CHG  1  14   1
M  END
$$$$
