BB2
 OpenBabel04091912403D

 62 62  0  0  1  0  0  0  0  0999 V2000
   33.3735   12.7988   12.0219 C   0  0  0  0  0  0  0  0  0  0  0  0
   31.8437   12.9342   12.0556 C   0  0  0  0  0  0  0  0  0  0  0  0
   31.1110   12.1396   12.6305 O   0  0  0  0  0  0  0  0  0  0  0  0
   31.2687   13.8189   11.3158 N   0  0  0  0  0  0  0  0  0  0  0  0
   29.8408   13.8566   11.3847 O   0  0  0  0  0  0  0  0  0  0  0  0
   33.7687   11.8477   10.8703 C   0  0  2  0  0  0  0  0  0  0  0  0
   35.1700   11.3873   11.0759 C   0  0  0  0  0  0  0  0  0  0  0  0
   36.1110   12.2043   10.9553 O   0  0  0  0  0  0  0  0  0  0  0  0
   33.7151   12.4408    9.4317 C   0  0  0  0  0  0  0  0  0  0  0  0
   34.1825   11.4855    8.2963 C   0  0  0  0  0  0  0  0  0  0  0  0
   33.3990   10.1710    8.2214 C   0  0  0  0  0  0  0  0  0  0  0  0
   33.7581    9.3832    6.9446 C   0  0  0  0  0  0  0  0  0  0  0  0
   35.2401    9.0042    6.8262 C   0  0  0  0  0  0  0  0  0  0  0  0
   35.4260   10.1060   11.3813 N   0  0  0  0  0  0  0  0  0  0  0  0
   36.7897    9.5687   11.4777 C   0  0  1  0  0  0  0  0  0  0  0  0
   37.0813    9.1707   12.9303 C   0  0  0  0  0  0  0  0  0  0  0  0
   36.1263    8.0664   13.3622 C   0  0  0  0  0  0  0  0  0  0  0  0
   37.1140   10.4531   13.7551 C   0  0  0  0  0  0  0  0  0  0  0  0
   36.8761    8.3489   10.5114 C   0  0  0  0  0  0  0  0  0  0  0  0
   35.8820    7.7543   10.1365 O   0  0  0  0  0  0  0  0  0  0  0  0
   38.1608    7.9419   10.1798 N   0  0  0  0  0  0  0  0  0  0  0  0
   38.4035    6.7911    9.3175 C   0  0  1  0  0  0  0  0  0  0  0  0
   39.3605    8.6667   10.5113 C   0  0  0  0  0  0  0  0  0  0  0  0
   40.4923    8.0178    9.7541 C   0  0  0  0  0  0  0  0  0  0  0  0
   39.8338    7.0174    8.8063 C   0  0  0  0  0  0  0  0  0  0  0  0
   38.3506    5.4783   10.1093 C   0  0  0  0  0  0  0  0  0  0  0  0
   38.3107    4.4189    9.1557 O   0  0  0  0  0  0  0  0  0  0  0  0
   33.7025   12.3856   12.9909 H   0  0  0  0  0  0  0  0  0  0  0  0
   33.8389   13.7905   11.9241 H   0  0  0  0  0  0  0  0  0  0  0  0
   31.7586   14.5186   10.7511 H   0  0  0  0  0  0  0  0  0  0  0  0
   29.5788   12.9337   11.1578 H   0  0  0  0  0  0  0  0  0  0  0  0
   33.1051   10.9865   10.8942 H   0  0  0  0  0  0  0  0  0  0  0  0
   34.3462   13.3428    9.3887 H   0  0  0  0  0  0  0  0  0  0  0  0
   32.6859   12.7313    9.2250 H   0  0  0  0  0  0  0  0  0  0  0  0
   35.2470   11.2420    8.4196 H   0  0  0  0  0  0  0  0  0  0  0  0
   34.0836   11.9975    7.3251 H   0  0  0  0  0  0  0  0  0  0  0  0
   32.3202   10.3944    8.2331 H   0  0  0  0  0  0  0  0  0  0  0  0
   33.6180    9.5577    9.1039 H   0  0  0  0  0  0  0  0  0  0  0  0
   33.4773    9.9969    6.0771 H   0  0  0  0  0  0  0  0  0  0  0  0
   33.1500    8.4692    6.9153 H   0  0  0  0  0  0  0  0  0  0  0  0
   35.4349    8.4545    5.8941 H   0  0  0  0  0  0  0  0  0  0  0  0
   35.5536    8.3654    7.6591 H   0  0  0  0  0  0  0  0  0  0  0  0
   35.8846    9.8927    6.8194 H   0  0  0  0  0  0  0  0  0  0  0  0
   34.6667    9.4366   11.4800 H   0  0  0  0  0  0  0  0  0  0  0  0
   37.5277   10.3357   11.1946 H   0  0  0  0  0  0  0  0  0  0  0  0
   38.0720    8.7290   13.0507 H   0  0  0  0  0  0  0  0  0  0  0  0
   36.2925    7.7747   14.3993 H   0  0  0  0  0  0  0  0  0  0  0  0
   36.3169    7.1884   12.7263 H   0  0  0  0  0  0  0  0  0  0  0  0
   35.0853    8.3667   13.2289 H   0  0  0  0  0  0  0  0  0  0  0  0
   37.8603   11.1233   13.2997 H   0  0  0  0  0  0  0  0  0  0  0  0
   37.4118   10.2610   14.7869 H   0  0  0  0  0  0  0  0  0  0  0  0
   36.1459   10.9608   13.7415 H   0  0  0  0  0  0  0  0  0  0  0  0
   37.6683    6.7169    8.4876 H   0  0  0  0  0  0  0  0  0  0  0  0
   39.5505    8.6283   11.5889 H   0  0  0  0  0  0  0  0  0  0  0  0
   39.2516    9.7139   10.2142 H   0  0  0  0  0  0  0  0  0  0  0  0
   41.1777    7.5200   10.4533 H   0  0  0  0  0  0  0  0  0  0  0  0
   41.0669    8.7791    9.2073 H   0  0  0  0  0  0  0  0  0  0  0  0
   39.8298    7.4327    7.7936 H   0  0  0  0  0  0  0  0  0  0  0  0
   40.4177    6.0916    8.7980 H   0  0  0  0  0  0  0  0  0  0  0  0
   37.4801    5.4286   10.7809 H   0  0  0  0  0  0  0  0  0  0  0  0
   39.2496    5.3896   10.7413 H   0  0  0  0  0  0  0  0  0  0  0  0
   37.5180    4.5395    8.5965 H   0  0  0  0  0  0  0  0  0  0  0  0
  1  2  1  0  0  0  0
  1  6  1  0  0  0  0
  1 28  1  0  0  0  0
  1 29  1  0  0  0  0
  2  3  2  0  0  0  0
  2  4  1  0  0  0  0
  4  5  1  0  0  0  0
  4 30  1  0  0  0  0
  5 31  1  0  0  0  0
  6  7  1  0  0  0  0
  6  9  1  0  0  0  0
  6 32  1  1  0  0  0
  7  8  2  0  0  0  0
  7 14  1  0  0  0  0
  9 10  1  0  0  0  0
  9 33  1  0  0  0  0
  9 34  1  0  0  0  0
 10 11  1  0  0  0  0
 10 35  1  0  0  0  0
 10 36  1  0  0  0  0
 11 12  1  0  0  0  0
 11 37  1  0  0  0  0
 11 38  1  0  0  0  0
 12 13  1  0  0  0  0
 12 39  1  0  0  0  0
 12 40  1  0  0  0  0
 13 41  1  0  0  0  0
 13 42  1  0  0  0  0
 13 43  1  0  0  0  0
 14 15  1  0  0  0  0
 14 44  1  0  0  0  0
 15 16  1  0  0  0  0
 15 19  1  0  0  0  0
 15 45  1  6  0  0  0
 16 17  1  0  0  0  0
 16 18  1  0  0  0  0
 16 46  1  0  0  0  0
 17 47  1  0  0  0  0
 17 48  1  0  0  0  0
 17 49  1  0  0  0  0
 18 50  1  0  0  0  0
 18 51  1  0  0  0  0
 18 52  1  0  0  0  0
 19 20  2  0  0  0  0
 19 21  1  0  0  0  0
 21 22  1  0  0  0  0
 21 23  1  0  0  0  0
 22 25  1  0  0  0  0
 22 26  1  0  0  0  0
 22 53  1  6  0  0  0
 23 24  1  0  0  0  0
 23 54  1  0  0  0  0
 23 55  1  0  0  0  0
 24 25  1  0  0  0  0
 24 56  1  0  0  0  0
 24 57  1  0  0  0  0
 25 58  1  0  0  0  0
 25 59  1  0  0  0  0
 26 27  1  0  0  0  0
 26 60  1  0  0  0  0
 26 61  1  0  0  0  0
 27 62  1  0  0  0  0
M  END
$$$$
