BBP
 OpenBabel04091912573D

 34 36  0  0  0  0  0  0  0  0999 V2000
   28.1241    2.1242   55.1865 Cl  0  0  0  0  0  0  0  0  0  0  0  0
   29.6458    2.5359   55.8783 C   0  0  0  0  0  0  0  0  0  0  0  0
   29.7827    3.7355   56.5703 C   0  0  0  0  0  0  0  0  0  0  0  0
   31.0098    4.0819   57.1486 C   0  0  0  0  0  0  0  0  0  0  0  0
   30.7175    1.6539   55.7371 C   0  0  0  0  0  0  0  0  0  0  0  0
   31.9398    2.0151   56.3245 C   0  0  0  0  0  0  0  0  0  0  0  0
   33.4183    1.1526   56.3314 S   0  0  0  0  0  0  0  0  0  0  0  0
   32.1086    3.2078   57.0275 C   0  0  0  0  0  0  0  0  0  0  0  0
   33.3743    3.4085   57.5472 N   0  0  0  0  0  0  0  0  0  0  0  0
   34.1575    2.3909   57.2512 C   0  0  0  0  0  0  0  0  0  0  0  0
   35.4902    2.2726   57.6237 N   0  0  0  0  0  0  0  0  0  0  0  0
   36.3334    1.2018   57.3408 C   0  0  0  0  0  0  0  0  0  0  0  0
   36.1594    0.1597   56.7283 O   0  0  0  0  0  0  0  0  0  0  0  0
   36.0837    3.2732   58.3711 N   0  0  0  0  0  0  0  0  0  0  0  0
   37.3087    2.8992   58.5761 C   0  0  0  0  0  0  0  0  0  0  0  0
   37.6331    1.5674   57.9766 C   0  0  0  0  0  0  0  0  0  0  0  0
   38.3105    3.6633   59.4177 C   0  0  0  0  0  0  0  0  0  0  0  0
   37.8678    5.1221   59.5887 C   0  0  0  0  0  0  0  0  0  0  0  0
   38.3657    2.9797   60.7874 C   0  0  0  0  0  0  0  0  0  0  0  0
   39.6961    3.6197   58.7618 C   0  0  0  0  0  0  0  0  0  0  0  0
   28.9365    4.4110   56.6691 H   0  0  0  0  0  0  0  0  0  0  0  0
   31.1227    5.0150   57.6926 H   0  0  0  0  0  0  0  0  0  0  0  0
   30.6172    0.7177   55.1980 H   0  0  0  0  0  0  0  0  0  0  0  0
   38.4136    1.6586   57.2175 H   0  0  0  0  0  0  0  0  0  0  0  0
   37.8965    0.8464   58.7509 H   0  0  0  0  0  0  0  0  0  0  0  0
   38.6008    5.6923   60.1696 H   0  0  0  0  0  0  0  0  0  0  0  0
   36.9072    5.1873   60.1133 H   0  0  0  0  0  0  0  0  0  0  0  0
   37.7443    5.6173   58.6186 H   0  0  0  0  0  0  0  0  0  0  0  0
   38.6812    1.9341   60.6980 H   0  0  0  0  0  0  0  0  0  0  0  0
   37.3794    2.9795   61.2657 H   0  0  0  0  0  0  0  0  0  0  0  0
   39.0709    3.4856   61.4542 H   0  0  0  0  0  0  0  0  0  0  0  0
   39.6814    4.0825   57.7686 H   0  0  0  0  0  0  0  0  0  0  0  0
   40.0509    2.5901   58.6366 H   0  0  0  0  0  0  0  0  0  0  0  0
   40.4394    4.1429   59.3727 H   0  0  0  0  0  0  0  0  0  0  0  0
  1  2  1  0  0  0  0
  2  3  2  0  0  0  0
  2  5  1  0  0  0  0
  3  4  1  0  0  0  0
  3 21  1  0  0  0  0
  4  8  2  0  0  0  0
  4 22  1  0  0  0  0
  5  6  2  0  0  0  0
  5 23  1  0  0  0  0
  6  7  1  0  0  0  0
  6  8  1  0  0  0  0
  7 10  1  0  0  0  0
  8  9  1  0  0  0  0
  9 10  2  0  0  0  0
 10 11  1  0  0  0  0
 11 12  1  0  0  0  0
 11 14  1  0  0  0  0
 12 13  2  0  0  0  0
 12 16  1  0  0  0  0
 14 15  2  0  0  0  0
 15 16  1  0  0  0  0
 15 17  1  0  0  0  0
 16 24  1  0  0  0  0
 16 25  1  0  0  0  0
 17 18  1  0  0  0  0
 17 19  1  0  0  0  0
 17 20  1  0  0  0  0
 18 26  1  0  0  0  0
 18 27  1  0  0  0  0
 18 28  1  0  0  0  0
 19 29  1  0  0  0  0
 19 30  1  0  0  0  0
 19 31  1  0  0  0  0
 20 32  1  0  0  0  0
 20 33  1  0  0  0  0
 20 34  1  0  0  0  0
M  END
$$$$
