BD0
 OpenBabel04091912533D

 53 56  0  0  1  0  0  0  0  0999 V2000
   16.9366   -0.3953   48.8540 C   0  0  0  0  0  0  0  0  0  0  0  0
   16.1613   -1.4511   49.3622 C   0  0  0  0  0  0  0  0  0  0  0  0
   14.8138   -1.2326   49.6685 C   0  0  0  0  0  0  0  0  0  0  0  0
   14.2790    0.0531   49.5386 C   0  0  0  0  0  0  0  0  0  0  0  0
   16.7132   -2.8211   49.4862 C   0  0  0  0  0  0  0  0  0  0  0  0
   16.9766   -3.3488   50.7456 N   0  0  0  0  0  0  0  0  0  0  0  0
   17.6106   -4.6548   50.8140 C   0  0  0  0  0  0  0  0  0  0  0  0
   17.8788   -3.5829   52.9521 C   0  0  0  0  0  0  0  0  0  0  0  0
   15.7043   -2.4308   52.7578 C   0  0  0  0  0  0  0  0  0  0  0  0
   13.3273   -2.0734   54.2785 C   0  0  0  0  0  0  0  0  0  0  0  0
   12.0741   -1.9247   55.1124 C   0  0  0  0  0  0  0  0  0  0  0  0
    9.0435   -0.9380   53.2217 C   0  0  0  0  0  0  0  0  0  0  0  0
    9.8798   -1.0360   55.4893 C   0  0  0  0  0  0  0  0  0  0  0  0
   14.5833    2.3666   48.9603 O   0  0  0  0  0  0  0  0  0  0  0  0
   15.0869    1.1012   49.0703 C   0  0  0  0  0  0  0  0  0  0  0  0
   16.4144    0.8804   48.7157 C   0  0  0  0  0  0  0  0  0  0  0  0
   18.2537   -0.6178   48.5436 O   0  0  0  0  0  0  0  0  0  0  0  0
   12.6221    0.3109   49.9573 Cl  0  0  0  0  0  0  0  0  0  0  0  0
   16.9005   -3.4558   48.4361 O   0  0  0  0  0  0  0  0  0  0  0  0
   17.8447   -4.9494   52.2819 C   0  0  0  0  0  0  0  0  0  0  0  0
   17.0385   -2.6517   52.0497 C   0  0  2  0  0  0  0  0  0  0  0  0
   14.6864   -3.3959   52.7427 C   0  0  0  0  0  0  0  0  0  0  0  0
   13.5123   -3.2156   53.4854 C   0  0  0  0  0  0  0  0  0  0  0  0
   11.0114   -1.0972   54.5411 N   0  0  0  0  0  0  0  0  0  0  0  0
   10.4160   -1.6095   53.3028 C   0  0  0  0  0  0  0  0  0  0  0  0
    8.7158   -0.5522   54.6495 C   0  0  0  0  0  0  0  0  0  0  0  0
    7.5575   -1.1155   55.0584 F   0  0  0  0  0  0  0  0  0  0  0  0
    8.5780    0.7891   54.7630 F   0  0  0  0  0  0  0  0  0  0  0  0
   14.3475   -1.1139   54.3177 C   0  0  0  0  0  0  0  0  0  0  0  0
   15.5258   -1.2961   53.5758 C   0  0  0  0  0  0  0  0  0  0  0  0
   14.1817   -2.0527   50.0027 H   0  0  0  0  0  0  0  0  0  0  0  0
   18.5634   -4.6546   50.2668 H   0  0  0  0  0  0  0  0  0  0  0  0
   16.9522   -5.4008   50.3585 H   0  0  0  0  0  0  0  0  0  0  0  0
   18.9155   -3.2360   53.0293 H   0  0  0  0  0  0  0  0  0  0  0  0
   17.4850   -3.6562   53.9739 H   0  0  0  0  0  0  0  0  0  0  0  0
   12.3629   -1.4723   56.0711 H   0  0  0  0  0  0  0  0  0  0  0  0
   11.6830   -2.9221   55.3493 H   0  0  0  0  0  0  0  0  0  0  0  0
    8.2942   -1.6204   52.8058 H   0  0  0  0  0  0  0  0  0  0  0  0
    9.0921   -0.0445   52.5902 H   0  0  0  0  0  0  0  0  0  0  0  0
   10.0919   -0.3429   56.3080 H   0  0  0  0  0  0  0  0  0  0  0  0
    9.6496   -2.0241   55.9133 H   0  0  0  0  0  0  0  0  0  0  0  0
   15.2729    2.9747   48.6399 H   0  0  0  0  0  0  0  0  0  0  0  0
   17.0491    1.6902   48.3792 H   0  0  0  0  0  0  0  0  0  0  0  0
   18.3984   -0.4101   47.6019 H   0  0  0  0  0  0  0  0  0  0  0  0
   18.7742   -5.5062   52.4446 H   0  0  0  0  0  0  0  0  0  0  0  0
   17.0271   -5.5583   52.6847 H   0  0  0  0  0  0  0  0  0  0  0  0
   17.5483   -1.6851   51.9218 H   0  0  0  0  0  0  0  0  0  0  0  0
   14.8028   -4.3058   52.1581 H   0  0  0  0  0  0  0  0  0  0  0  0
   12.7377   -3.9798   53.4500 H   0  0  0  0  0  0  0  0  0  0  0  0
   11.0224   -1.3527   52.4285 H   0  0  0  0  0  0  0  0  0  0  0  0
   10.2860   -2.6996   53.3258 H   0  0  0  0  0  0  0  0  0  0  0  0
   14.2311   -0.2241   54.9368 H   0  0  0  0  0  0  0  0  0  0  0  0
   16.3108   -0.5434   53.6538 H   0  0  0  0  0  0  0  0  0  0  0  0
  1  2  2  0  0  0  0
  1 16  1  0  0  0  0
  1 17  1  0  0  0  0
  2  3  1  0  0  0  0
  2  5  1  0  0  0  0
  3  4  2  0  0  0  0
  3 31  1  0  0  0  0
  4 15  1  0  0  0  0
  4 18  1  0  0  0  0
  5  6  1  0  0  0  0
  5 19  2  0  0  0  0
  6  7  1  0  0  0  0
  6 21  1  0  0  0  0
  7 20  1  0  0  0  0
  7 32  1  0  0  0  0
  7 33  1  0  0  0  0
  8 20  1  0  0  0  0
  8 21  1  0  0  0  0
  8 34  1  0  0  0  0
  8 35  1  0  0  0  0
  9 21  1  0  0  0  0
  9 22  2  0  0  0  0
  9 30  1  0  0  0  0
 10 11  1  0  0  0  0
 10 23  2  0  0  0  0
 10 29  1  0  0  0  0
 11 24  1  0  0  0  0
 11 36  1  0  0  0  0
 11 37  1  0  0  0  0
 12 25  1  0  0  0  0
 12 26  1  0  0  0  0
 12 38  1  0  0  0  0
 12 39  1  0  0  0  0
 13 24  1  0  0  0  0
 13 26  1  0  0  0  0
 13 40  1  0  0  0  0
 13 41  1  0  0  0  0
 14 15  1  0  0  0  0
 14 42  1  0  0  0  0
 15 16  2  0  0  0  0
 16 43  1  0  0  0  0
 17 44  1  0  0  0  0
 20 45  1  0  0  0  0
 20 46  1  0  0  0  0
 21 47  1  6  0  0  0
 22 23  1  0  0  0  0
 22 48  1  0  0  0  0
 23 49  1  0  0  0  0
 24 25  1  0  0  0  0
 25 50  1  0  0  0  0
 25 51  1  0  0  0  0
 26 27  1  0  0  0  0
 26 28  1  0  0  0  0
 29 30  2  0  0  0  0
 29 52  1  0  0  0  0
 30 53  1  0  0  0  0
M  END
$$$$
