BEN
 OpenBabel04091912503D

 18 18  0  0  0  0  0  0  0  0999 V2000
   -1.8316   14.0938   16.4137 C   0  0  0  0  0  0  0  0  0  0  0  0
   -1.2007   13.4672   17.4859 C   0  0  0  0  0  0  0  0  0  0  0  0
   -0.8685   14.1787   18.6349 C   0  0  0  0  0  0  0  0  0  0  0  0
   -1.1686   15.5364   18.7134 C   0  0  0  0  0  0  0  0  0  0  0  0
   -1.7921   16.1785   17.6475 C   0  0  0  0  0  0  0  0  0  0  0  0
   -2.1289   15.4539   16.5020 C   0  0  0  0  0  0  0  0  0  0  0  0
   -2.1752   13.3408   15.2105 C   0  0  0  0  0  0  0  0  0  0  0  0
   -2.9422   13.8749   14.3042 N   0  0  0  0  0  0  0  0  0  0  0  0
   -1.7346   12.1321   15.0033 N   0  0  0  0  0  0  0  0  0  0  0  0
   -0.9621   12.4115   17.4542 H   0  0  0  0  0  0  0  0  0  0  0  0
   -0.3788   13.6791   19.4613 H   0  0  0  0  0  0  0  0  0  0  0  0
   -0.9155   16.0973   19.6124 H   0  0  0  0  0  0  0  0  0  0  0  0
   -2.0147   17.2332   17.7015 H   0  0  0  0  0  0  0  0  0  0  0  0
   -2.6191   15.9780   15.6907 H   0  0  0  0  0  0  0  0  0  0  0  0
   -3.1876   13.3667   13.4569 H   0  0  0  0  0  0  0  0  0  0  0  0
   -1.1358   11.6706   15.6630 H   0  0  0  0  0  0  0  0  0  0  0  0
   -1.9868   11.6444   14.1547 H   0  0  0  0  0  0  0  0  0  0  0  0
   -3.3304   14.8051   14.4006 H   0  0  0  0  0  0  0  0  0  0  0  0
  1  2  2  0  0  0  0
  1  6  1  0  0  0  0
  1  7  1  0  0  0  0
  2  3  1  0  0  0  0
  2 10  1  0  0  0  0
  3  4  2  0  0  0  0
  3 11  1  0  0  0  0
  4  5  1  0  0  0  0
  4 12  1  0  0  0  0
  5  6  2  0  0  0  0
  5 13  1  0  0  0  0
  6 14  1  0  0  0  0
  7  8  2  0  0  0  0
  7  9  1  0  0  0  0
  8 15  1  0  0  0  0
  8 18  1  0  0  0  0
  9 16  1  0  0  0  0
  9 17  1  0  0  0  0
M  END
$$$$
