BES
 OpenBabel04091913303D

 46 46  0  0  1  0  0  0  0  0999 V2000
   84.8409   76.2980   30.1850 N   0  3  0  0  0  0  0  0  0  0  0  0
   85.7926   75.1447   30.1422 C   0  0  2  0  0  0  0  0  0  0  0  0
   85.5279   74.2287   31.3430 C   0  0  0  0  0  0  0  0  0  0  0  0
   84.2472   73.4532   31.3715 C   0  0  0  0  0  0  0  0  0  0  0  0
   84.0974   72.2493   30.6659 C   0  0  0  0  0  0  0  0  0  0  0  0
   83.1963   73.8749   32.2072 C   0  0  0  0  0  0  0  0  0  0  0  0
   82.9370   71.4911   30.7855 C   0  0  0  0  0  0  0  0  0  0  0  0
   82.0365   73.1181   32.3213 C   0  0  0  0  0  0  0  0  0  0  0  0
   81.8965   71.9254   31.6107 C   0  0  0  0  0  0  0  0  0  0  0  0
   87.2487   75.6508   30.2241 C   0  0  2  0  0  0  0  0  0  0  0  0
   87.6105   76.6367   29.2526 O   0  0  0  0  0  0  0  0  0  0  0  0
   88.0437   74.4337   29.8500 C   0  0  0  0  0  0  0  0  0  0  0  0
   87.7283   73.8209   28.8635 O   0  0  0  0  0  0  0  0  0  0  0  0
   89.1177   74.2000   30.6311 N   0  0  0  0  0  0  0  0  0  0  0  0
   89.7910   72.9204   30.4543 C   0  0  1  0  0  0  0  0  0  0  0  0
   91.1796   73.1075   31.0343 C   0  0  0  0  0  0  0  0  0  0  0  0
   92.1650   72.0112   30.6601 C   0  0  0  0  0  0  0  0  0  0  0  0
   92.6861   72.1795   29.2401 C   0  0  0  0  0  0  0  0  0  0  0  0
   93.3206   72.0403   31.6566 C   0  0  0  0  0  0  0  0  0  0  0  0
   88.9911   71.7278   31.1057 C   0  0  0  0  0  0  0  0  0  0  0  0
   88.9782   70.6600   30.4189 O   0  0  0  0  0  0  0  0  0  0  0  0
   88.3755   72.0454   32.1578 O   0  0  0  0  0  0  0  0  0  0  0  0
   85.0082   76.9258   29.3885 H   0  0  0  0  0  0  0  0  0  0  0  0
   83.8739   75.9345   30.1290 H   0  0  0  0  0  0  0  0  0  0  0  0
   85.5897   74.6444   29.1893 H   0  0  0  0  0  0  0  0  0  0  0  0
   85.5878   74.8371   32.2532 H   0  0  0  0  0  0  0  0  0  0  0  0
   86.3369   73.5021   31.3949 H   0  0  0  0  0  0  0  0  0  0  0  0
   84.9169   71.8822   30.0393 H   0  0  0  0  0  0  0  0  0  0  0  0
   83.3037   74.7816   32.7935 H   0  0  0  0  0  0  0  0  0  0  0  0
   82.8378   70.5470   30.2424 H   0  0  0  0  0  0  0  0  0  0  0  0
   81.2331   73.4524   32.9783 H   0  0  0  0  0  0  0  0  0  0  0  0
   80.9837   71.3406   31.7026 H   0  0  0  0  0  0  0  0  0  0  0  0
   87.4873   76.0314   31.2324 H   0  0  0  0  0  0  0  0  0  0  0  0
   87.6378   76.1812   28.3677 H   0  0  0  0  0  0  0  0  0  0  0  0
   89.2538   74.6820   31.5141 H   0  0  0  0  0  0  0  0  0  0  0  0
   89.8665   72.7487   29.3726 H   0  0  0  0  0  0  0  0  0  0  0  0
   91.0871   73.1630   32.1246 H   0  0  0  0  0  0  0  0  0  0  0  0
   91.5805   74.0758   30.6982 H   0  0  0  0  0  0  0  0  0  0  0  0
   91.6754   71.0321   30.7338 H   0  0  0  0  0  0  0  0  0  0  0  0
   93.3941   71.3836   28.9907 H   0  0  0  0  0  0  0  0  0  0  0  0
   93.1952   73.1408   29.1184 H   0  0  0  0  0  0  0  0  0  0  0  0
   91.8651   72.1355   28.5208 H   0  0  0  0  0  0  0  0  0  0  0  0
   92.9425   71.9198   32.6760 H   0  0  0  0  0  0  0  0  0  0  0  0
   93.8583   72.9925   31.6048 H   0  0  0  0  0  0  0  0  0  0  0  0
   94.0277   71.2300   31.4588 H   0  0  0  0  0  0  0  0  0  0  0  0
   84.9435   76.8276   31.0504 H   0  0  0  0  0  0  0  0  0  0  0  0
  1  2  1  0  0  0  0
  1 23  1  0  0  0  0
  1 24  1  0  0  0  0
  1 46  1  0  0  0  0
  2  3  1  0  0  0  0
  2 10  1  0  0  0  0
  2 25  1  6  0  0  0
  3  4  1  0  0  0  0
  3 26  1  0  0  0  0
  3 27  1  0  0  0  0
  4  5  2  0  0  0  0
  4  6  1  0  0  0  0
  5  7  1  0  0  0  0
  5 28  1  0  0  0  0
  6  8  2  0  0  0  0
  6 29  1  0  0  0  0
  7  9  2  0  0  0  0
  7 30  1  0  0  0  0
  8  9  1  0  0  0  0
  8 31  1  0  0  0  0
  9 32  1  0  0  0  0
 10 11  1  0  0  0  0
 10 12  1  0  0  0  0
 10 33  1  1  0  0  0
 11 34  1  0  0  0  0
 12 13  2  0  0  0  0
 12 14  1  0  0  0  0
 14 15  1  0  0  0  0
 14 35  1  0  0  0  0
 15 16  1  0  0  0  0
 15 20  1  0  0  0  0
 15 36  1  6  0  0  0
 16 17  1  0  0  0  0
 16 37  1  0  0  0  0
 16 38  1  0  0  0  0
 17 18  1  0  0  0  0
 17 19  1  0  0  0  0
 17 39  1  0  0  0  0
 18 40  1  0  0  0  0
 18 41  1  0  0  0  0
 18 42  1  0  0  0  0
 19 43  1  0  0  0  0
 19 44  1  0  0  0  0
 19 45  1  0  0  0  0
 20 21  2  0  0  0  0
 20 22  1  0  0  0  0
M  CHG  1   1   1
M  END
$$$$
