BET
 OpenBabel04091914423D

 19 18  0  0  0  0  0  0  0  0999 V2000
  -29.6469  -29.7132    9.1874 N   0  3  0  0  0  0  0  0  0  0  0  0
  -29.8200  -31.2054    8.8516 C   0  0  0  0  0  0  0  0  0  0  0  0
  -28.7300  -32.2219    9.2682 C   0  0  0  0  0  0  0  0  0  0  0  0
  -28.6963  -33.2840    8.5872 O   0  0  0  0  0  0  0  0  0  0  0  0
  -28.0229  -31.8750   10.2224 O   0  0  0  0  0  0  0  0  0  0  0  0
  -30.7489  -28.9411    8.5645 C   0  0  0  0  0  0  0  0  0  0  0  0
  -28.3293  -29.2382    8.6762 C   0  0  0  0  0  0  0  0  0  0  0  0
  -29.6950  -29.5686   10.6707 C   0  0  0  0  0  0  0  0  0  0  0  0
  -29.9561  -31.2178    7.7726 H   0  0  0  0  0  0  0  0  0  0  0  0
  -30.7435  -31.4794    9.3636 H   0  0  0  0  0  0  0  0  0  0  0  0
  -30.5943  -27.8952    8.8151 H   0  0  0  0  0  0  0  0  0  0  0  0
  -31.6934  -29.3020    8.9695 H   0  0  0  0  0  0  0  0  0  0  0  0
  -30.7081  -29.0902    7.4861 H   0  0  0  0  0  0  0  0  0  0  0  0
  -27.5249  -29.8117    9.1286 H   0  0  0  0  0  0  0  0  0  0  0  0
  -28.2518  -28.1876    8.9515 H   0  0  0  0  0  0  0  0  0  0  0  0
  -28.3333  -29.3529    7.5930 H   0  0  0  0  0  0  0  0  0  0  0  0
  -30.6536  -29.9607   11.0081 H   0  0  0  0  0  0  0  0  0  0  0  0
  -29.6176  -28.5058   10.8797 H   0  0  0  0  0  0  0  0  0  0  0  0
  -28.8716  -30.1035   11.1252 H   0  0  0  0  0  0  0  0  0  0  0  0
  1  2  1  0  0  0  0
  1  6  1  0  0  0  0
  1  7  1  0  0  0  0
  1  8  1  0  0  0  0
  2  3  1  0  0  0  0
  2  9  1  0  0  0  0
  2 10  1  0  0  0  0
  3  4  2  0  0  0  0
  3  5  1  0  0  0  0
  6 11  1  0  0  0  0
  6 12  1  0  0  0  0
  6 13  1  0  0  0  0
  7 14  1  0  0  0  0
  7 15  1  0  0  0  0
  7 16  1  0  0  0  0
  8 17  1  0  0  0  0
  8 18  1  0  0  0  0
  8 19  1  0  0  0  0
M  CHG  1   1   1
M  END
$$$$
