BEW
 OpenBabel04091913423D

 14 14  0  0  0  0  0  0  0  0999 V2000
   15.9905    5.4234   14.1854 C   0  0  0  0  0  0  0  0  0  0  0  0
   15.2350    5.7446   15.2481 C   0  0  0  0  0  0  0  0  0  0  0  0
   14.9153    4.7446   16.2249 C   0  0  0  0  0  0  0  0  0  0  0  0
   16.0837    3.1037   14.9878 N   0  3  0  0  0  0  0  0  0  0  0  0
   16.5573    1.7904   14.8134 O   0  0  0  0  0  0  0  0  0  0  0  0
   16.5264    4.0307   13.9492 C   0  0  0  0  0  0  0  0  0  0  0  0
   15.3461    3.4766   16.1167 C   0  0  0  0  0  0  0  0  0  0  0  0
   14.8260    2.3752   17.3898 S   0  0  0  0  0  0  0  0  0  0  0  0
   16.2518    6.1644   13.4405 H   0  0  0  0  0  0  0  0  0  0  0  0
   14.8637    6.7493   15.3779 H   0  0  0  0  0  0  0  0  0  0  0  0
   14.3024    5.0576   17.0728 H   0  0  0  0  0  0  0  0  0  0  0  0
   17.6243    4.0842   13.9226 H   0  0  0  0  0  0  0  0  0  0  0  0
   16.1728    3.6881   12.9663 H   0  0  0  0  0  0  0  0  0  0  0  0
   14.6050    1.3729   16.5249 H   0  0  0  0  0  0  0  0  0  0  0  0
  1  2  2  0  0  0  0
  1  6  1  0  0  0  0
  1  9  1  0  0  0  0
  2  3  1  0  0  0  0
  2 10  1  0  0  0  0
  3  7  2  0  0  0  0
  3 11  1  0  0  0  0
  4  5  1  0  0  0  0
  4  6  1  0  0  0  0
  4  7  1  0  0  0  0
  6 12  1  0  0  0  0
  6 13  1  0  0  0  0
  7  8  1  0  0  0  0
  8 14  1  0  0  0  0
M  CHG  1   4   1
M  END
$$$$
