BEY
 OpenBabel04091911393D

 48 49  0  0  1  0  0  0  0  0999 V2000
   12.9563   10.5243   10.4540 O   0  0  0  0  0  0  0  0  0  0  0  0
   13.6336   11.6338   11.2197 P   0  0  1  0  0  0  0  0  0  0  0  0
   13.7959   13.0033   10.5769 O   0  0  0  0  0  0  0  0  0  0  0  0
   12.3806   11.9466   12.6097 C   0  0  1  0  0  0  0  0  0  0  0  0
   12.7804   11.6900   14.0609 C   0  0  0  0  0  0  0  0  0  0  0  0
   12.8465   12.8825   15.0036 C   0  0  0  0  0  0  0  0  0  0  0  0
   12.8473   12.4790   16.4622 C   0  0  0  0  0  0  0  0  0  0  0  0
   13.9038   12.8677   17.2981 C   0  0  0  0  0  0  0  0  0  0  0  0
   13.9042   12.5226   18.6531 C   0  0  0  0  0  0  0  0  0  0  0  0
   12.8476   11.7918   19.1931 C   0  0  0  0  0  0  0  0  0  0  0  0
   11.7898   11.4054   18.3749 C   0  0  0  0  0  0  0  0  0  0  0  0
   11.7834   11.7532   17.0238 C   0  0  0  0  0  0  0  0  0  0  0  0
   11.5920   13.2271   12.4372 N   0  3  0  0  0  0  0  0  0  0  0  0
   15.1942   11.1005   12.0208 C   0  0  0  0  0  0  0  0  0  0  0  0
   15.9671   10.0561   11.2228 C   0  0  2  0  0  0  0  0  0  0  0  0
   16.4954    9.0309   12.2159 C   0  0  0  0  0  0  0  0  0  0  0  0
   15.7586    8.0104   12.4293 O   0  0  0  0  0  0  0  0  0  0  0  0
   17.5743    9.3046   12.8077 O   0  0  0  0  0  0  0  0  0  0  0  0
   17.1129   10.7056   10.4673 C   0  0  0  0  0  0  0  0  0  0  0  0
   17.6567    9.7928    9.3964 C   0  0  0  0  0  0  0  0  0  0  0  0
   17.0522    9.7569    8.1402 C   0  0  0  0  0  0  0  0  0  0  0  0
   17.5385    8.8872    7.1521 C   0  0  0  0  0  0  0  0  0  0  0  0
   18.5986    8.0392    7.4355 C   0  0  0  0  0  0  0  0  0  0  0  0
   19.1940    8.0574    8.6939 C   0  0  0  0  0  0  0  0  0  0  0  0
   18.7240    8.9306    9.6743 C   0  0  0  0  0  0  0  0  0  0  0  0
   11.6309   11.1931   12.3745 H   0  0  0  0  0  0  0  0  0  0  0  0
   13.7450   11.2075   14.1193 H   0  0  0  0  0  0  0  0  0  0  0  0
   12.0974   10.9253   14.4424 H   0  0  0  0  0  0  0  0  0  0  0  0
   11.9944   13.5489   14.8647 H   0  0  0  0  0  0  0  0  0  0  0  0
   13.7541   13.4560   14.7720 H   0  0  0  0  0  0  0  0  0  0  0  0
   14.7420   13.4343   16.8991 H   0  0  0  0  0  0  0  0  0  0  0  0
   14.7378   12.8182   19.2853 H   0  0  0  0  0  0  0  0  0  0  0  0
   12.8562   11.5172   20.2443 H   0  0  0  0  0  0  0  0  0  0  0  0
   10.9688   10.8234   18.7924 H   0  0  0  0  0  0  0  0  0  0  0  0
   10.9445   11.4401   16.4095 H   0  0  0  0  0  0  0  0  0  0  0  0
   10.8473   13.3485   13.1128 H   0  0  0  0  0  0  0  0  0  0  0  0
   12.2552   13.9902   12.3651 H   0  0  0  0  0  0  0  0  0  0  0  0
   14.9959   10.6637   12.9923 H   0  0  0  0  0  0  0  0  0  0  0  0
   15.7929   12.0027   12.2146 H   0  0  0  0  0  0  0  0  0  0  0  0
   15.2695    9.5643   10.5295 H   0  0  0  0  0  0  0  0  0  0  0  0
   17.9204   10.9993   11.1466 H   0  0  0  0  0  0  0  0  0  0  0  0
   16.7810   11.6402    9.9985 H   0  0  0  0  0  0  0  0  0  0  0  0
   16.1987   10.4018    7.9336 H   0  0  0  0  0  0  0  0  0  0  0  0
   17.0512    8.8729    6.1845 H   0  0  0  0  0  0  0  0  0  0  0  0
   18.9598    7.3565    6.6733 H   0  0  0  0  0  0  0  0  0  0  0  0
   20.0133    7.3860    8.9254 H   0  0  0  0  0  0  0  0  0  0  0  0
   19.1739    8.9280   10.6653 H   0  0  0  0  0  0  0  0  0  0  0  0
   11.1960   13.1637   11.4635 H   0  0  0  0  0  0  0  0  0  0  0  0
  2  1  2  6  0  0  0
  2  3  1  0  0  0  0
  2  4  1  0  0  0  0
  2 14  1  0  0  0  0
  4  5  1  0  0  0  0
  4 13  1  0  0  0  0
  4 26  1  6  0  0  0
  5  6  1  0  0  0  0
  5 27  1  0  0  0  0
  5 28  1  0  0  0  0
  6  7  1  0  0  0  0
  6 29  1  0  0  0  0
  6 30  1  0  0  0  0
  7  8  2  0  0  0  0
  7 12  1  0  0  0  0
  8  9  1  0  0  0  0
  8 31  1  0  0  0  0
  9 10  2  0  0  0  0
  9 32  1  0  0  0  0
 10 11  1  0  0  0  0
 10 33  1  0  0  0  0
 11 12  2  0  0  0  0
 11 34  1  0  0  0  0
 12 35  1  0  0  0  0
 13 36  1  0  0  0  0
 13 37  1  0  0  0  0
 13 48  1  0  0  0  0
 14 15  1  0  0  0  0
 14 38  1  0  0  0  0
 14 39  1  0  0  0  0
 15 16  1  0  0  0  0
 15 19  1  0  0  0  0
 15 40  1  6  0  0  0
 16 17  2  0  0  0  0
 16 18  1  0  0  0  0
 19 20  1  0  0  0  0
 19 41  1  0  0  0  0
 19 42  1  0  0  0  0
 20 21  2  0  0  0  0
 20 25  1  0  0  0  0
 21 22  1  0  0  0  0
 21 43  1  0  0  0  0
 22 23  2  0  0  0  0
 22 44  1  0  0  0  0
 23 24  1  0  0  0  0
 23 45  1  0  0  0  0
 24 25  2  0  0  0  0
 24 46  1  0  0  0  0
 25 47  1  0  0  0  0
M  CHG  1  13   1
M  END
$$$$
