BHK
 OpenBabel04091912353D

 29 29  0  0  1  0  0  0  0  0999 V2000
  -27.0484    0.6452   -8.8485 C   0  0  0  0  0  0  0  0  0  0  0  0
  -28.3312    0.1724   -8.5877 C   0  0  0  0  0  0  0  0  0  0  0  0
  -28.7288   -0.0655   -7.2755 C   0  0  0  0  0  0  0  0  0  0  0  0
  -27.8348    0.1616   -6.2321 C   0  0  0  0  0  0  0  0  0  0  0  0
  -26.5402    0.6180   -6.4941 C   0  0  0  0  0  0  0  0  0  0  0  0
  -26.1299    0.8527   -7.8159 C   0  0  0  0  0  0  0  0  0  0  0  0
  -24.7357    1.3634   -8.1067 C   0  0  0  0  0  0  0  0  0  0  0  0
  -23.8665    0.4284   -8.9647 C   0  0  1  0  0  0  0  0  0  0  0  0
  -24.3231    0.4104  -10.4248 C   0  0  0  0  0  0  0  0  0  0  0  0
  -24.5314   -0.7305  -10.9120 O   0  0  0  0  0  0  0  0  0  0  0  0
  -24.3827    1.5399  -10.9938 O   0  0  0  0  0  0  0  0  0  0  0  0
  -22.4324    0.9640   -9.0207 C   0  0  0  0  0  0  0  0  0  0  0  0
  -21.4739    0.0740   -9.7764 C   0  0  0  0  0  0  0  0  0  0  0  0
  -21.0494   -0.9901   -9.3012 O   0  0  0  0  0  0  0  0  0  0  0  0
  -20.9790    0.5679  -11.1401 C   0  0  0  0  0  0  0  0  0  0  0  0
  -19.6745    0.0694  -11.4324 O   0  0  0  0  0  0  0  0  0  0  0  0
  -26.7717    0.8351   -9.8870 H   0  0  0  0  0  0  0  0  0  0  0  0
  -29.0097   -0.0129   -9.4147 H   0  0  0  0  0  0  0  0  0  0  0  0
  -29.7312   -0.4349   -7.0719 H   0  0  0  0  0  0  0  0  0  0  0  0
  -28.1423   -0.0230   -5.2063 H   0  0  0  0  0  0  0  0  0  0  0  0
  -25.8548    0.7792   -5.6714 H   0  0  0  0  0  0  0  0  0  0  0  0
  -24.2203    1.5275   -7.1515 H   0  0  0  0  0  0  0  0  0  0  0  0
  -24.8241    2.3598   -8.5631 H   0  0  0  0  0  0  0  0  0  0  0  0
  -23.8758   -0.5881   -8.5510 H   0  0  0  0  0  0  0  0  0  0  0  0
  -22.0279    1.0656   -8.0072 H   0  0  0  0  0  0  0  0  0  0  0  0
  -22.3973    1.9700   -9.4518 H   0  0  0  0  0  0  0  0  0  0  0  0
  -20.9189    1.6577  -11.1364 H   0  0  0  0  0  0  0  0  0  0  0  0
  -21.6648    0.2359  -11.9259 H   0  0  0  0  0  0  0  0  0  0  0  0
  -19.7354   -0.8905  -11.2622 H   0  0  0  0  0  0  0  0  0  0  0  0
  1  2  2  0  0  0  0
  1  6  1  0  0  0  0
  1 17  1  0  0  0  0
  2  3  1  0  0  0  0
  2 18  1  0  0  0  0
  3  4  2  0  0  0  0
  3 19  1  0  0  0  0
  4  5  1  0  0  0  0
  4 20  1  0  0  0  0
  5  6  2  0  0  0  0
  5 21  1  0  0  0  0
  6  7  1  0  0  0  0
  7  8  1  0  0  0  0
  7 22  1  0  0  0  0
  7 23  1  0  0  0  0
  8  9  1  0  0  0  0
  8 12  1  0  0  0  0
  8 24  1  1  0  0  0
  9 10  2  0  0  0  0
  9 11  1  0  0  0  0
 12 13  1  0  0  0  0
 12 25  1  0  0  0  0
 12 26  1  0  0  0  0
 13 14  2  0  0  0  0
 13 15  1  0  0  0  0
 15 16  1  0  0  0  0
 15 27  1  0  0  0  0
 15 28  1  0  0  0  0
 16 29  1  0  0  0  0
M  END
$$$$
