BIG
 OpenBabel04091911313D

 49 51  0  0  1  0  0  0  0  0999 V2000
   -1.3763   -4.1163    5.2770 C   0  0  0  0  0  0  0  0  0  0  0  0
   -3.8301   -3.4639    4.6267 C   0  0  0  0  0  0  0  0  0  0  0  0
   -3.2393   -2.9247    5.7396 C   0  0  0  0  0  0  0  0  0  0  0  0
   -5.3170   -2.0516    5.6066 C   0  0  0  0  0  0  0  0  0  0  0  0
   -1.2802    2.0973    8.1947 O   0  0  0  0  0  0  0  0  0  0  0  0
   -1.1908    1.1216    7.1565 C   0  0  2  0  0  0  0  0  0  0  0  0
   -2.1035    1.5104    5.9914 C   0  0  1  0  0  0  0  0  0  0  0  0
   -1.6464    0.8911    4.6692 C   0  0  0  0  0  0  0  0  0  0  0  0
   -0.3330    1.8397    3.8823 S   0  0  0  0  0  0  0  0  0  0  0  0
   -1.3411    3.1131    3.0555 C   0  0  0  0  0  0  0  0  0  0  0  0
   -0.4016    4.1480    2.4553 C   0  0  0  0  0  0  0  0  0  0  0  0
   -1.1381    5.4519    2.1603 C   0  0  0  0  0  0  0  0  0  0  0  0
   -0.9790    5.8322    0.7034 C   0  0  0  0  0  0  0  0  0  0  0  0
   -3.4625    0.8968    6.3191 C   0  0  0  0  0  0  0  0  0  0  0  0
   -3.2608    0.0708    7.5572 N   0  3  2  0  0  0  0  0  0  0  0  0
   -1.7798   -0.1581    7.6984 C   0  0  0  0  0  0  0  0  0  0  0  0
   -3.9951   -1.2330    7.6398 C   0  0  0  0  0  0  0  0  0  0  0  0
   -5.1162   -2.9205    4.5563 N   0  3  0  0  0  0  0  0  0  0  0  0
   -3.1654   -4.3965    3.8145 C   0  0  0  0  0  0  0  0  0  0  0  0
   -3.6991   -4.9940    2.6990 N   0  0  0  0  0  0  0  0  0  0  0  0
   -1.9746   -3.2305    6.1070 N   0  0  0  0  0  0  0  0  0  0  0  0
   -4.1641   -2.0269    6.3781 C   0  0  0  0  0  0  0  0  0  0  0  0
   -1.9037   -4.7012    4.1818 N   0  0  0  0  0  0  0  0  0  0  0  0
   -0.3522   -4.3909    5.5223 H   0  0  0  0  0  0  0  0  0  0  0  0
   -6.2546   -1.5221    5.7620 H   0  0  0  0  0  0  0  0  0  0  0  0
   -0.6704    1.8331    8.9129 H   0  0  0  0  0  0  0  0  0  0  0  0
   -0.1503    0.9885    6.8556 H   0  0  0  0  0  0  0  0  0  0  0  0
   -2.2042    2.5999    5.9088 H   0  0  0  0  0  0  0  0  0  0  0  0
   -2.4838    0.7998    3.9685 H   0  0  0  0  0  0  0  0  0  0  0  0
   -1.2538   -0.1135    4.8514 H   0  0  0  0  0  0  0  0  0  0  0  0
   -2.0158    3.5822    3.7795 H   0  0  0  0  0  0  0  0  0  0  0  0
   -1.9410    2.6501    2.2620 H   0  0  0  0  0  0  0  0  0  0  0  0
    0.0402    3.7423    1.5362 H   0  0  0  0  0  0  0  0  0  0  0  0
    0.4209    4.3658    3.1474 H   0  0  0  0  0  0  0  0  0  0  0  0
   -0.7293    6.2536    2.7873 H   0  0  0  0  0  0  0  0  0  0  0  0
   -2.2048    5.3624    2.3909 H   0  0  0  0  0  0  0  0  0  0  0  0
   -1.5042    6.7666    0.4945 H   0  0  0  0  0  0  0  0  0  0  0  0
   -1.3942    5.0468    0.0635 H   0  0  0  0  0  0  0  0  0  0  0  0
    0.0794    5.9594    0.4559 H   0  0  0  0  0  0  0  0  0  0  0  0
   -3.8042    0.2410    5.5170 H   0  0  0  0  0  0  0  0  0  0  0  0
   -4.2337    1.6495    6.5046 H   0  0  0  0  0  0  0  0  0  0  0  0
   -1.5658   -0.3191    8.7610 H   0  0  0  0  0  0  0  0  0  0  0  0
   -1.5070   -1.0251    7.1046 H   0  0  0  0  0  0  0  0  0  0  0  0
   -4.9721   -0.9745    8.0633 H   0  0  0  0  0  0  0  0  0  0  0  0
   -3.4575   -1.8290    8.3823 H   0  0  0  0  0  0  0  0  0  0  0  0
   -5.8260   -3.1231    3.8430 H   0  0  0  0  0  0  0  0  0  0  0  0
   -3.1231   -5.6610    2.1928 H   0  0  0  0  0  0  0  0  0  0  0  0
   -4.6364   -4.8253    2.3766 H   0  0  0  0  0  0  0  0  0  0  0  0
   -3.5353    0.6765    8.3487 H   0  0  0  0  0  0  0  0  0  0  0  0
  1 21  1  0  0  0  0
  1 23  2  0  0  0  0
  1 24  1  0  0  0  0
  2  3  1  0  0  0  0
  2 18  1  0  0  0  0
  2 19  2  0  0  0  0
  3 21  1  0  0  0  0
  3 22  2  0  0  0  0
  4 18  2  0  0  0  0
  4 22  1  0  0  0  0
  4 25  1  0  0  0  0
  5  6  1  0  0  0  0
  5 26  1  0  0  0  0
  6  7  1  0  0  0  0
  6 16  1  0  0  0  0
  6 27  1  6  0  0  0
  7  8  1  0  0  0  0
  7 14  1  0  0  0  0
  7 28  1  6  0  0  0
  8  9  1  0  0  0  0
  8 29  1  0  0  0  0
  8 30  1  0  0  0  0
  9 10  1  0  0  0  0
 10 11  1  0  0  0  0
 10 31  1  0  0  0  0
 10 32  1  0  0  0  0
 11 12  1  0  0  0  0
 11 33  1  0  0  0  0
 11 34  1  0  0  0  0
 12 13  1  0  0  0  0
 12 35  1  0  0  0  0
 12 36  1  0  0  0  0
 13 37  1  0  0  0  0
 13 38  1  0  0  0  0
 13 39  1  0  0  0  0
 14 15  1  0  0  0  0
 14 40  1  0  0  0  0
 14 41  1  0  0  0  0
 15 16  1  0  0  0  0
 15 17  1  0  0  0  0
 15 49  1  1  0  0  0
 16 42  1  0  0  0  0
 16 43  1  0  0  0  0
 17 22  1  0  0  0  0
 17 44  1  0  0  0  0
 17 45  1  0  0  0  0
 18 46  1  0  0  0  0
 19 20  1  0  0  0  0
 19 23  1  0  0  0  0
 20 47  1  0  0  0  0
 20 48  1  0  0  0  0
M  CHG  2  15   1  18   1
M  END
$$$$
