BIX
 OpenBabel04091912283D

 35 34  0  0  1  0  0  0  0  0999 V2000
   22.6491   44.6663   15.8390 C   0  0  2  0  0  0  0  0  0  0  0  0
   21.0645   45.2780   17.7660 C   0  0  0  0  0  0  0  0  0  0  0  0
   22.3503   46.0119   15.1114 C   0  0  0  0  0  0  0  0  0  0  0  0
   21.5526   44.2086   16.7947 C   0  0  0  0  0  0  0  0  0  0  0  0
   18.5729   43.8325   18.1466 C   0  0  0  0  0  0  0  0  0  0  0  0
   22.9744   46.9851   15.6526 O   0  0  0  0  0  0  0  0  0  0  0  0
   14.8155   40.5662   16.7527 O   0  0  0  0  0  0  0  0  0  0  0  0
   15.6055   41.2081   16.0039 C   0  0  0  0  0  0  0  0  0  0  0  0
   15.4965   41.3986   14.7705 O   0  0  0  0  0  0  0  0  0  0  0  0
   16.8264   41.8617   16.6576 C   0  0  0  0  0  0  0  0  0  0  0  0
   16.8218   41.9749   18.1763 C   0  0  0  0  0  0  0  0  0  0  0  0
   18.1482   42.5055   18.7715 C   0  0  1  0  0  0  0  0  0  0  0  0
   19.2286   41.4195   18.5894 C   0  0  0  0  0  0  0  0  0  0  0  0
   19.1535   40.4325   19.3993 O   0  0  0  0  0  0  0  0  0  0  0  0
   20.0276   41.5576   17.6112 O   0  0  0  0  0  0  0  0  0  0  0  0
   19.8803   44.7236   19.0634 P   0  0  1  0  0  0  0  0  0  0  0  0
   20.6822   43.8330   19.9864 O   0  0  0  0  0  0  0  0  0  0  0  0
   19.2633   45.9956   19.6240 O   0  0  0  0  0  0  0  0  0  0  0  0
   23.9490   44.7489   16.6235 N   0  3  0  0  0  0  0  0  0  0  0  0
   21.7556   45.9426   14.0059 O   0  0  0  0  0  0  0  0  0  0  0  0
   22.8436   43.8964   15.0854 H   0  0  0  0  0  0  0  0  0  0  0  0
   20.6054   46.1052   17.2164 H   0  0  0  0  0  0  0  0  0  0  0  0
   21.9169   45.6925   18.3186 H   0  0  0  0  0  0  0  0  0  0  0  0
   21.9163   43.3435   17.3646 H   0  0  0  0  0  0  0  0  0  0  0  0
   20.7205   43.8662   16.1844 H   0  0  0  0  0  0  0  0  0  0  0  0
   17.7026   44.4997   18.0837 H   0  0  0  0  0  0  0  0  0  0  0  0
   18.8807   43.6711   17.1115 H   0  0  0  0  0  0  0  0  0  0  0  0
   16.9276   42.8638   16.2141 H   0  0  0  0  0  0  0  0  0  0  0  0
   17.6999   41.2886   16.3307 H   0  0  0  0  0  0  0  0  0  0  0  0
   16.5908   40.9992   18.6170 H   0  0  0  0  0  0  0  0  0  0  0  0
   16.0021   42.6464   18.4714 H   0  0  0  0  0  0  0  0  0  0  0  0
   17.9961   42.6695   19.8561 H   0  0  0  0  0  0  0  0  0  0  0  0
   24.1183   43.8801   17.1403 H   0  0  0  0  0  0  0  0  0  0  0  0
   24.6843   45.0245   15.9841 H   0  0  0  0  0  0  0  0  0  0  0  0
   23.8112   45.5493   17.2575 H   0  0  0  0  0  0  0  0  0  0  0  0
  1  3  1  0  0  0  0
  1  4  1  0  0  0  0
  1 19  1  0  0  0  0
  1 21  1  6  0  0  0
  2  4  1  0  0  0  0
  2 22  1  0  0  0  0
  2 23  1  0  0  0  0
  3  6  2  0  0  0  0
  3 20  1  0  0  0  0
  4 24  1  0  0  0  0
  4 25  1  0  0  0  0
  5 12  1  0  0  0  0
  5 16  1  0  0  0  0
  5 26  1  0  0  0  0
  5 27  1  0  0  0  0
  7  8  2  0  0  0  0
  8  9  1  0  0  0  0
  8 10  1  0  0  0  0
 10 11  1  0  0  0  0
 10 28  1  0  0  0  0
 10 29  1  0  0  0  0
 11 12  1  0  0  0  0
 11 30  1  0  0  0  0
 11 31  1  0  0  0  0
 12 13  1  0  0  0  0
 12 32  1  1  0  0  0
 13 14  2  0  0  0  0
 13 15  1  0  0  0  0
 16  2  1  6  0  0  0
 16 17  2  0  0  0  0
 16 18  1  0  0  0  0
 19 33  1  0  0  0  0
 19 34  1  0  0  0  0
 19 35  1  0  0  0  0
M  CHG  1  19   1
M  END
$$$$
