BK5
 OpenBabel04091915253D

 47 50  0  0  0  0  0  0  0  0999 V2000
   21.3696   12.2634   63.4094 N   0  0  0  0  0  0  0  0  0  0  0  0
   22.5220   12.9208   63.1723 C   0  0  0  0  0  0  0  0  0  0  0  0
   22.7226   14.2411   63.1171 N   0  0  0  0  0  0  0  0  0  0  0  0
   21.5785   14.9172   63.3388 C   0  0  0  0  0  0  0  0  0  0  0  0
   20.3358   14.3747   63.5959 C   0  0  0  0  0  0  0  0  0  0  0  0
   20.2540   12.9762   63.6269 C   0  0  0  0  0  0  0  0  0  0  0  0
    9.7589   14.7323   65.3477 C   0  0  0  0  0  0  0  0  0  0  0  0
   22.2166   18.5632   63.8310 C   0  0  0  0  0  0  0  0  0  0  0  0
   22.5723   17.4979   61.5871 C   0  0  0  0  0  0  0  0  0  0  0  0
   19.0956   12.2885   63.8833 N   0  0  0  0  0  0  0  0  0  0  0  0
   14.2514   13.9970   66.6392 C   0  0  0  0  0  0  0  0  0  0  0  0
   17.1991   16.2453   63.2215 C   0  0  0  0  0  0  0  0  0  0  0  0
   15.6286   13.9902   66.4023 C   0  0  0  0  0  0  0  0  0  0  0  0
   15.8322   16.2404   63.4677 C   0  0  0  0  0  0  0  0  0  0  0  0
   13.9385   15.4881   64.7695 C   0  0  0  0  0  0  0  0  0  0  0  0
   17.5416   14.7557   65.1004 C   0  0  0  0  0  0  0  0  0  0  0  0
   11.2101   14.9317   64.9578 C   0  0  0  0  0  0  0  0  0  0  0  0
   20.1334   16.6526   63.5563 N   0  0  0  0  0  0  0  0  0  0  0  0
   12.0556   14.6963   66.0942 O   0  0  0  0  0  0  0  0  0  0  0  0
   13.3976   14.7362   65.8086 C   0  0  0  0  0  0  0  0  0  0  0  0
   18.0558   15.4973   64.0308 C   0  0  0  0  0  0  0  0  0  0  0  0
   19.4772   15.4977   63.7468 C   0  0  0  0  0  0  0  0  0  0  0  0
   15.3132   15.4931   64.5215 C   0  0  0  0  0  0  0  0  0  0  0  0
   16.1674   14.7334   65.3505 C   0  0  0  0  0  0  0  0  0  0  0  0
   22.4493   17.2524   63.0876 C   0  0  0  0  0  0  0  0  0  0  0  0
   21.4099   16.2706   63.3492 N   0  3  0  0  0  0  0  0  0  0  0  0
   23.3956   12.2986   63.0107 H   0  0  0  0  0  0  0  0  0  0  0  0
    9.1055   14.8932   64.4842 H   0  0  0  0  0  0  0  0  0  0  0  0
    9.4715   15.4337   66.1372 H   0  0  0  0  0  0  0  0  0  0  0  0
    9.5967   13.7207   65.7292 H   0  0  0  0  0  0  0  0  0  0  0  0
   23.0386   19.2632   63.6511 H   0  0  0  0  0  0  0  0  0  0  0  0
   22.1477   18.3891   64.9123 H   0  0  0  0  0  0  0  0  0  0  0  0
   21.2875   19.0444   63.5088 H   0  0  0  0  0  0  0  0  0  0  0  0
   22.7474   16.5586   61.0502 H   0  0  0  0  0  0  0  0  0  0  0  0
   23.4080   18.1710   61.3712 H   0  0  0  0  0  0  0  0  0  0  0  0
   21.6574   17.9447   61.1862 H   0  0  0  0  0  0  0  0  0  0  0  0
   18.2145   12.7555   63.9853 H   0  0  0  0  0  0  0  0  0  0  0  0
   19.1425   11.2822   63.8639 H   0  0  0  0  0  0  0  0  0  0  0  0
   13.8464   13.4182   67.4631 H   0  0  0  0  0  0  0  0  0  0  0  0
   17.5989   16.8355   62.4000 H   0  0  0  0  0  0  0  0  0  0  0  0
   16.2816   13.4041   67.0489 H   0  0  0  0  0  0  0  0  0  0  0  0
   15.1792   16.8347   62.8290 H   0  0  0  0  0  0  0  0  0  0  0  0
   13.3059   16.1002   64.1367 H   0  0  0  0  0  0  0  0  0  0  0  0
   18.2143   14.1792   65.7345 H   0  0  0  0  0  0  0  0  0  0  0  0
   11.3153   15.9601   64.5945 H   0  0  0  0  0  0  0  0  0  0  0  0
   11.4671   14.2263   64.1584 H   0  0  0  0  0  0  0  0  0  0  0  0
   23.3859   16.8153   63.4559 H   0  0  0  0  0  0  0  0  0  0  0  0
  1  2  1  0  0  0  0
  1  6  2  0  0  0  0
  2  3  2  0  0  0  0
  2 27  1  0  0  0  0
  3  4  1  0  0  0  0
  4  5  1  0  0  0  0
  4 26  2  0  0  0  0
  5  6  1  0  0  0  0
  5 22  2  0  0  0  0
  6 10  1  0  0  0  0
  7 17  1  0  0  0  0
  7 28  1  0  0  0  0
  7 29  1  0  0  0  0
  7 30  1  0  0  0  0
  8 25  1  0  0  0  0
  8 31  1  0  0  0  0
  8 32  1  0  0  0  0
  8 33  1  0  0  0  0
  9 25  1  0  0  0  0
  9 34  1  0  0  0  0
  9 35  1  0  0  0  0
  9 36  1  0  0  0  0
 10 37  1  0  0  0  0
 10 38  1  0  0  0  0
 11 13  2  0  0  0  0
 11 20  1  0  0  0  0
 11 39  1  0  0  0  0
 12 14  2  0  0  0  0
 12 21  1  0  0  0  0
 12 40  1  0  0  0  0
 13 24  1  0  0  0  0
 13 41  1  0  0  0  0
 14 23  1  0  0  0  0
 14 42  1  0  0  0  0
 15 20  2  0  0  0  0
 15 23  1  0  0  0  0
 15 43  1  0  0  0  0
 16 21  2  0  0  0  0
 16 24  1  0  0  0  0
 16 44  1  0  0  0  0
 17 19  1  0  0  0  0
 17 45  1  0  0  0  0
 17 46  1  0  0  0  0
 18 22  1  0  0  0  0
 18 26  1  0  0  0  0
 19 20  1  0  0  0  0
 21 22  1  0  0  0  0
 23 24  2  0  0  0  0
 25 26  1  0  0  0  0
 25 47  1  0  0  0  0
M  CHG  1  26   1
M  END
$$$$
