BK6
 OpenBabel04091915403D

 54 58  0  0  0  0  0  0  0  0999 V2000
   21.5803   12.4495   63.8393 N   0  0  0  0  0  0  0  0  0  0  0  0
   22.7186   13.1303   63.6086 C   0  0  0  0  0  0  0  0  0  0  0  0
   22.8803   14.4628   63.5131 N   0  0  0  0  0  0  0  0  0  0  0  0
   21.7150   15.1015   63.7099 C   0  0  0  0  0  0  0  0  0  0  0  0
   20.4775   14.5334   63.9651 C   0  0  0  0  0  0  0  0  0  0  0  0
   20.4323   13.1349   64.0304 C   0  0  0  0  0  0  0  0  0  0  0  0
   11.2723   15.2743   65.6987 C   0  0  0  0  0  0  0  0  0  0  0  0
   19.2998   12.3876   64.2811 N   0  0  0  0  0  0  0  0  0  0  0  0
   14.4096   14.0418   67.0390 C   0  0  0  0  0  0  0  0  0  0  0  0
   17.2762   16.3532   63.5783 C   0  0  0  0  0  0  0  0  0  0  0  0
   15.7859   14.0842   66.7990 C   0  0  0  0  0  0  0  0  0  0  0  0
   15.9072   16.3161   63.8404 C   0  0  0  0  0  0  0  0  0  0  0  0
   14.0273   15.5059   65.1654 C   0  0  0  0  0  0  0  0  0  0  0  0
   17.6748   14.9038   65.4738 C   0  0  0  0  0  0  0  0  0  0  0  0
   24.4615   19.0387   60.5584 C   0  0  0  0  0  0  0  0  0  0  0  0
   22.1894   18.4404   59.7404 C   0  0  0  0  0  0  0  0  0  0  0  0
   24.0639   18.7268   61.9907 C   0  0  0  0  0  0  0  0  0  0  0  0
   21.7713   18.0235   61.1429 C   0  0  0  0  0  0  0  0  0  0  0  0
   22.5218   17.4710   63.5228 C   0  0  0  0  0  0  0  0  0  0  0  0
   20.2257   16.8103   63.8396 N   0  0  0  0  0  0  0  0  0  0  0  0
   23.2450   19.4892   59.8237 N   0  3  0  0  0  0  0  0  0  0  0  0
   12.2039   14.6313   66.5609 O   0  0  0  0  0  0  0  0  0  0  0  0
   13.5257   14.7502   66.2252 C   0  0  0  0  0  0  0  0  0  0  0  0
   18.1655   15.6357   64.3843 C   0  0  0  0  0  0  0  0  0  0  0  0
   19.5908   15.6473   64.0836 C   0  0  0  0  0  0  0  0  0  0  0  0
   15.4061   15.5588   64.9092 C   0  0  0  0  0  0  0  0  0  0  0  0
   16.2964   14.8416   65.7339 C   0  0  0  0  0  0  0  0  0  0  0  0
   22.9592   17.6585   62.0568 C   0  0  0  0  0  0  0  0  0  0  0  0
   21.5132   16.4487   63.7026 N   0  3  0  0  0  0  0  0  0  0  0  0
   23.6127   12.5272   63.4826 H   0  0  0  0  0  0  0  0  0  0  0  0
   10.2677   15.0877   66.0873 H   0  0  0  0  0  0  0  0  0  0  0  0
   11.3242   14.8572   64.6873 H   0  0  0  0  0  0  0  0  0  0  0  0
   11.4278   16.3582   65.6864 H   0  0  0  0  0  0  0  0  0  0  0  0
   18.3882   12.7894   64.1147 H   0  0  0  0  0  0  0  0  0  0  0  0
   19.4130   11.3967   64.1058 H   0  0  0  0  0  0  0  0  0  0  0  0
   14.0241   13.4508   67.8669 H   0  0  0  0  0  0  0  0  0  0  0  0
   17.6440   16.9409   62.7414 H   0  0  0  0  0  0  0  0  0  0  0  0
   16.4491   13.5178   67.4488 H   0  0  0  0  0  0  0  0  0  0  0  0
   15.2328   16.8800   63.1990 H   0  0  0  0  0  0  0  0  0  0  0  0
   13.3608   16.0674   64.5188 H   0  0  0  0  0  0  0  0  0  0  0  0
   18.3647   14.3674   66.1217 H   0  0  0  0  0  0  0  0  0  0  0  0
   24.8583   18.1616   60.0360 H   0  0  0  0  0  0  0  0  0  0  0  0
   25.1900   19.8521   60.5078 H   0  0  0  0  0  0  0  0  0  0  0  0
   21.3508   18.8748   59.1876 H   0  0  0  0  0  0  0  0  0  0  0  0
   22.6042   17.6056   59.1660 H   0  0  0  0  0  0  0  0  0  0  0  0
   23.7188   19.6481   62.4784 H   0  0  0  0  0  0  0  0  0  0  0  0
   24.9453   18.3862   62.5466 H   0  0  0  0  0  0  0  0  0  0  0  0
   21.0950   17.1646   61.0538 H   0  0  0  0  0  0  0  0  0  0  0  0
   21.1919   18.8354   61.5991 H   0  0  0  0  0  0  0  0  0  0  0  0
   22.1174   18.4081   63.9269 H   0  0  0  0  0  0  0  0  0  0  0  0
   23.3766   17.1948   64.1518 H   0  0  0  0  0  0  0  0  0  0  0  0
   22.8598   20.3347   60.2693 H   0  0  0  0  0  0  0  0  0  0  0  0
   23.3831   16.7132   61.6908 H   0  0  0  0  0  0  0  0  0  0  0  0
   23.5101   19.7777   58.8722 H   0  0  0  0  0  0  0  0  0  0  0  0
  1  2  1  0  0  0  0
  1  6  2  0  0  0  0
  2  3  2  0  0  0  0
  2 30  1  0  0  0  0
  3  4  1  0  0  0  0
  4  5  1  0  0  0  0
  4 29  2  0  0  0  0
  5  6  1  0  0  0  0
  5 25  2  0  0  0  0
  6  8  1  0  0  0  0
  7 22  1  0  0  0  0
  7 31  1  0  0  0  0
  7 32  1  0  0  0  0
  7 33  1  0  0  0  0
  8 34  1  0  0  0  0
  8 35  1  0  0  0  0
  9 11  2  0  0  0  0
  9 23  1  0  0  0  0
  9 36  1  0  0  0  0
 10 12  2  0  0  0  0
 10 24  1  0  0  0  0
 10 37  1  0  0  0  0
 11 27  1  0  0  0  0
 11 38  1  0  0  0  0
 12 26  1  0  0  0  0
 12 39  1  0  0  0  0
 13 23  2  0  0  0  0
 13 26  1  0  0  0  0
 13 40  1  0  0  0  0
 14 24  2  0  0  0  0
 14 27  1  0  0  0  0
 14 41  1  0  0  0  0
 15 17  1  0  0  0  0
 15 21  1  0  0  0  0
 15 42  1  0  0  0  0
 15 43  1  0  0  0  0
 16 18  1  0  0  0  0
 16 21  1  0  0  0  0
 16 44  1  0  0  0  0
 16 45  1  0  0  0  0
 17 28  1  0  0  0  0
 17 46  1  0  0  0  0
 17 47  1  0  0  0  0
 18 28  1  0  0  0  0
 18 48  1  0  0  0  0
 18 49  1  0  0  0  0
 19 28  1  0  0  0  0
 19 29  1  0  0  0  0
 19 50  1  0  0  0  0
 19 51  1  0  0  0  0
 20 25  1  0  0  0  0
 20 29  1  0  0  0  0
 21 52  1  0  0  0  0
 21 54  1  0  0  0  0
 22 23  1  0  0  0  0
 24 25  1  0  0  0  0
 26 27  2  0  0  0  0
 28 53  1  0  0  0  0
M  CHG  2  21   1  29   1
M  END
$$$$
