BL1
 OpenBabel04091911043D

 40 42  0  0  1  0  0  0  0  0999 V2000
   -7.5820    0.9116   16.8754 O   0  0  0  0  0  0  0  0  0  0  0  0
   -6.1610    1.1161   17.0625 S   0  0  0  0  0  0  0  0  0  0  0  0
   -5.4160   -0.1523   16.3356 N   0  0  0  0  0  0  0  0  0  0  0  0
   -5.4638    1.3227   18.2850 O   0  0  0  0  0  0  0  0  0  0  0  0
   -5.6776    2.4124   15.8567 C   0  0  0  0  0  0  0  0  0  0  0  0
   -5.1590    2.1124   14.5444 C   0  0  0  0  0  0  0  0  0  0  0  0
   -5.9242    3.7085   16.2100 C   0  0  0  0  0  0  0  0  0  0  0  0
   -6.5728    4.1338   17.7374 Cl  0  0  0  0  0  0  0  0  0  0  0  0
   -5.6383    4.7002   15.3015 C   0  0  0  0  0  0  0  0  0  0  0  0
   -5.0687    4.3848   14.0527 C   0  0  0  0  0  0  0  0  0  0  0  0
   -4.8208    3.1115   13.6252 C   0  0  0  0  0  0  0  0  0  0  0  0
   -4.3866    2.7085   12.2276 C   0  0  0  0  0  0  0  0  0  0  0  0
   -4.5750    1.5244   11.9594 O   0  0  0  0  0  0  0  0  0  0  0  0
   -3.8281    3.4075   11.1750 N   0  0  0  0  0  0  0  0  0  0  0  0
   -3.2185    4.6190   10.9772 N   0  0  0  0  0  0  0  0  0  0  0  0
   -2.0191    4.7312   10.1050 C   0  0  1  0  0  0  0  0  0  0  0  0
   -2.1832    4.0794    8.7280 C   0  0  0  0  0  0  0  0  0  0  0  0
   -3.7893    5.8926   11.0857 C   0  0  0  0  0  0  0  0  0  0  0  0
   -2.9340    6.8755   10.5751 C   0  0  0  0  0  0  0  0  0  0  0  0
   -1.7448    6.2459    9.9283 C   0  0  0  0  0  0  0  0  0  0  0  0
   -4.9921    6.2895   11.6507 C   0  0  0  0  0  0  0  0  0  0  0  0
   -5.2842    7.6391   11.8455 C   0  0  0  0  0  0  0  0  0  0  0  0
   -4.4126    8.6013   11.3380 C   0  0  0  0  0  0  0  0  0  0  0  0
   -3.2388    8.2250   10.6758 C   0  0  0  0  0  0  0  0  0  0  0  0
   -5.6618   -0.3819   15.4023 H   0  0  0  0  0  0  0  0  0  0  0  0
   -4.7843   -0.6811   16.9173 H   0  0  0  0  0  0  0  0  0  0  0  0
   -5.0206    1.0961   14.2333 H   0  0  0  0  0  0  0  0  0  0  0  0
   -5.8210    5.7424   15.5482 H   0  0  0  0  0  0  0  0  0  0  0  0
   -4.7857    5.2245   13.4777 H   0  0  0  0  0  0  0  0  0  0  0  0
   -3.6564    2.7401   10.4310 H   0  0  0  0  0  0  0  0  0  0  0  0
   -1.1807    4.2422   10.6151 H   0  0  0  0  0  0  0  0  0  0  0  0
   -1.2473    4.1410    8.1516 H   0  0  0  0  0  0  0  0  0  0  0  0
   -2.9671    4.5818    8.1516 H   0  0  0  0  0  0  0  0  0  0  0  0
   -2.4457    3.0224    8.8129 H   0  0  0  0  0  0  0  0  0  0  0  0
   -1.6826    6.5230    8.8688 H   0  0  0  0  0  0  0  0  0  0  0  0
   -0.8210    6.5302   10.4356 H   0  0  0  0  0  0  0  0  0  0  0  0
   -5.7098    5.5654   11.9979 H   0  0  0  0  0  0  0  0  0  0  0  0
   -6.1985    7.9335   12.3570 H   0  0  0  0  0  0  0  0  0  0  0  0
   -4.6760    9.6493   11.4151 H   0  0  0  0  0  0  0  0  0  0  0  0
   -2.5716    8.9758   10.2612 H   0  0  0  0  0  0  0  0  0  0  0  0
  1  2  2  0  0  0  0
  2  3  1  0  0  0  0
  2  4  2  0  0  0  0
  2  5  1  0  0  0  0
  3 25  1  0  0  0  0
  3 26  1  0  0  0  0
  5  6  2  0  0  0  0
  5  7  1  0  0  0  0
  6 11  1  0  0  0  0
  6 27  1  0  0  0  0
  7  8  1  0  0  0  0
  7  9  2  0  0  0  0
  9 10  1  0  0  0  0
  9 28  1  0  0  0  0
 10 11  2  0  0  0  0
 10 29  1  0  0  0  0
 11 12  1  0  0  0  0
 12 13  2  0  0  0  0
 12 14  1  0  0  0  0
 14 15  1  0  0  0  0
 14 30  1  0  0  0  0
 15 16  1  0  0  0  0
 15 18  1  0  0  0  0
 16 17  1  0  0  0  0
 16 20  1  0  0  0  0
 16 31  1  1  0  0  0
 17 32  1  0  0  0  0
 17 33  1  0  0  0  0
 17 34  1  0  0  0  0
 18 19  2  0  0  0  0
 18 21  1  0  0  0  0
 19 20  1  0  0  0  0
 19 24  1  0  0  0  0
 20 35  1  0  0  0  0
 20 36  1  0  0  0  0
 21 22  2  0  0  0  0
 21 37  1  0  0  0  0
 22 23  1  0  0  0  0
 22 38  1  0  0  0  0
 23 24  2  0  0  0  0
 23 39  1  0  0  0  0
 24 40  1  0  0  0  0
M  END
$$$$
