BMU
 OpenBabel04091914153D

 40 41  0  0  0  0  0  0  0  0999 V2000
   -0.7875   -2.9183  -14.5877 C   0  0  0  0  0  0  0  0  0  0  0  0
    0.0516   -2.3620  -15.2148 O   0  0  0  0  0  0  0  0  0  0  0  0
   -2.1148   -3.0661  -14.8699 N   0  0  0  0  0  0  0  0  0  0  0  0
   -2.7491   -2.3861  -15.8978 C   0  0  0  0  0  0  0  0  0  0  0  0
   -4.1043   -2.0915  -15.7260 C   0  0  0  0  0  0  0  0  0  0  0  0
   -4.8107   -1.4188  -16.7317 C   0  0  0  0  0  0  0  0  0  0  0  0
   -4.1722   -1.0639  -17.9226 C   0  0  0  0  0  0  0  0  0  0  0  0
   -5.0543   -0.2511  -19.1708 Cl  0  0  0  0  0  0  0  0  0  0  0  0
   -2.8206   -1.3819  -18.0993 C   0  0  0  0  0  0  0  0  0  0  0  0
   -2.1017   -2.0290  -17.0836 C   0  0  0  0  0  0  0  0  0  0  0  0
   -0.4998   -3.5538  -13.3783 N   0  0  0  0  0  0  0  0  0  0  0  0
    0.7048   -3.4246  -12.7371 C   0  0  0  0  0  0  0  0  0  0  0  0
    1.4026   -2.2846  -12.4329 C   0  0  0  0  0  0  0  0  0  0  0  0
    2.5210   -2.7870  -11.7185 C   0  0  0  0  0  0  0  0  0  0  0  0
    2.4885   -4.1191  -11.5892 N   0  0  0  0  0  0  0  0  0  0  0  0
    1.3744   -4.4960  -12.2130 N   0  3  0  0  0  0  0  0  0  0  0  0
    1.0426   -5.9106  -12.2958 C   0  0  0  0  0  0  0  0  0  0  0  0
    3.0415   -1.0765  -10.0125 C   0  0  0  0  0  0  0  0  0  0  0  0
    4.2404   -1.0766  -12.2411 C   0  0  0  0  0  0  0  0  0  0  0  0
    4.7352   -2.7934  -10.5314 C   0  0  0  0  0  0  0  0  0  0  0  0
    3.6259   -1.9456  -11.1329 C   0  0  0  0  0  0  0  0  0  0  0  0
   -2.6857   -3.6609  -14.2886 H   0  0  0  0  0  0  0  0  0  0  0  0
   -4.6056   -2.3605  -14.7978 H   0  0  0  0  0  0  0  0  0  0  0  0
   -5.8633   -1.1874  -16.5781 H   0  0  0  0  0  0  0  0  0  0  0  0
   -2.3129   -1.1287  -19.0284 H   0  0  0  0  0  0  0  0  0  0  0  0
   -1.0521   -2.2768  -17.2377 H   0  0  0  0  0  0  0  0  0  0  0  0
   -1.1235   -4.2243  -12.9844 H   0  0  0  0  0  0  0  0  0  0  0  0
    1.2104   -1.2253  -12.6153 H   0  0  0  0  0  0  0  0  0  0  0  0
    1.8171   -6.4656  -11.7576 H   0  0  0  0  0  0  0  0  0  0  0  0
    1.0197   -6.2598  -13.3394 H   0  0  0  0  0  0  0  0  0  0  0  0
    0.0695   -6.1212  -11.8259 H   0  0  0  0  0  0  0  0  0  0  0  0
    3.8147   -0.4425   -9.5667 H   0  0  0  0  0  0  0  0  0  0  0  0
    2.6226   -1.7221   -9.2264 H   0  0  0  0  0  0  0  0  0  0  0  0
    2.2365   -0.4366  -10.3930 H   0  0  0  0  0  0  0  0  0  0  0  0
    4.6505   -1.7196  -13.0341 H   0  0  0  0  0  0  0  0  0  0  0  0
    5.0495   -0.4532  -11.8457 H   0  0  0  0  0  0  0  0  0  0  0  0
    3.4839   -0.4219  -12.6913 H   0  0  0  0  0  0  0  0  0  0  0  0
    4.3276   -3.4150   -9.7281 H   0  0  0  0  0  0  0  0  0  0  0  0
    5.5228   -2.1540  -10.1207 H   0  0  0  0  0  0  0  0  0  0  0  0
    5.1649   -3.4416  -11.3005 H   0  0  0  0  0  0  0  0  0  0  0  0
  1  2  2  0  0  0  0
  1  3  1  0  0  0  0
  1 11  1  0  0  0  0
  3  4  1  0  0  0  0
  3 22  1  0  0  0  0
  4  5  2  0  0  0  0
  4 10  1  0  0  0  0
  5  6  1  0  0  0  0
  5 23  1  0  0  0  0
  6  7  2  0  0  0  0
  6 24  1  0  0  0  0
  7  8  1  0  0  0  0
  7  9  1  0  0  0  0
  9 10  2  0  0  0  0
  9 25  1  0  0  0  0
 10 26  1  0  0  0  0
 11 12  1  0  0  0  0
 11 27  1  0  0  0  0
 12 13  1  0  0  0  0
 12 16  2  0  0  0  0
 13 14  2  0  0  0  0
 13 28  1  0  0  0  0
 14 15  1  0  0  0  0
 14 21  1  0  0  0  0
 15 16  1  0  0  0  0
 16 17  1  0  0  0  0
 17 29  1  0  0  0  0
 17 30  1  0  0  0  0
 17 31  1  0  0  0  0
 18 21  1  0  0  0  0
 18 32  1  0  0  0  0
 18 33  1  0  0  0  0
 18 34  1  0  0  0  0
 19 21  1  0  0  0  0
 19 35  1  0  0  0  0
 19 36  1  0  0  0  0
 19 37  1  0  0  0  0
 20 21  1  0  0  0  0
 20 38  1  0  0  0  0
 20 39  1  0  0  0  0
 20 40  1  0  0  0  0
M  CHG  1  16   1
M  END
$$$$
