BS5
 OpenBabel04091915053D

 67 71  0  0  1  0  0  0  0  0999 V2000
   -4.1019   -4.9748    6.2026 S   0  0  0  0  0  0  0  0  0  0  0  0
   -7.8112   -1.0238   13.4492 N   0  0  0  0  0  0  0  0  0  0  0  0
   -8.0790   -0.8101   12.1407 C   0  0  0  0  0  0  0  0  0  0  0  0
   -7.2145   -0.5323   11.1378 N   0  0  0  0  0  0  0  0  0  0  0  0
   -5.9494   -0.5118   11.5851 C   0  0  0  0  0  0  0  0  0  0  0  0
   -5.5295   -0.7090   12.8888 C   0  0  0  0  0  0  0  0  0  0  0  0
   -6.5200   -0.9720   13.8558 C   0  0  0  0  0  0  0  0  0  0  0  0
   -6.2550   -1.1614   15.1949 N   0  0  0  0  0  0  0  0  0  0  0  0
   -4.1608   -0.6070   12.9864 N   0  0  0  0  0  0  0  0  0  0  0  0
   -3.7586   -0.3668   11.7565 C   0  0  0  0  0  0  0  0  0  0  0  0
   -4.7996   -0.3011   10.8694 N   0  3  0  0  0  0  0  0  0  0  0  0
   -4.7095   -0.0296    9.4451 C   0  0  1  0  0  0  0  0  0  0  0  0
   -0.5479  -10.4198   15.3697 N   0  0  0  0  0  0  0  0  0  0  0  0
   -3.4412   -8.5549   15.7404 S   0  0  0  0  0  0  0  0  0  0  0  0
   -3.4039    0.6451    8.9753 C   0  0  2  0  0  0  0  0  0  0  0  0
   -3.6686    1.6151    7.9473 O   0  0  0  0  0  0  0  0  0  0  0  0
   -3.4877   -9.0688   14.0026 C   0  0  2  0  0  0  0  0  0  0  0  0
   -1.0411   -9.2843   13.5272 N   0  0  0  0  0  0  0  0  0  0  0  0
   -2.6115   -0.5094    8.3727 C   0  0  2  0  0  0  0  0  0  0  0  0
   -1.7281   -0.0911    7.3416 O   0  0  0  0  0  0  0  0  0  0  0  0
   -0.0759   -9.4852   14.4801 C   0  0  0  0  0  0  0  0  0  0  0  0
    1.0117   -8.9423   14.5144 O   0  0  0  0  0  0  0  0  0  0  0  0
   -3.7126   -1.3983    7.8302 C   0  0  2  0  0  0  0  0  0  0  0  0
   -4.8206   -1.2829    8.7416 O   0  0  0  0  0  0  0  0  0  0  0  0
   -2.2726   -9.9896   13.8292 C   0  0  1  0  0  0  0  0  0  0  0  0
   -3.2959   -2.8645    7.7116 C   0  0  0  0  0  0  0  0  0  0  0  0
   -4.3472   -3.5620    6.9794 N   0  0  0  0  0  0  0  0  0  0  0  0
   -1.9531  -10.7099   15.1603 C   0  0  2  0  0  0  0  0  0  0  0  0
   -2.8157  -10.1574   16.2974 C   0  0  0  0  0  0  0  0  0  0  0  0
   -3.5158   -7.8704   13.0520 C   0  0  0  0  0  0  0  0  0  0  0  0
   -3.7122   -8.3328   11.6062 C   0  0  0  0  0  0  0  0  0  0  0  0
   -4.1271   -7.1729   10.7140 C   0  0  0  0  0  0  0  0  0  0  0  0
   -4.1212   -7.5794    9.2467 C   0  0  0  0  0  0  0  0  0  0  0  0
   -4.6065   -6.4239    8.4069 C   0  0  0  0  0  0  0  0  0  0  0  0
   -3.6960   -5.9813    7.4405 N   0  0  0  0  0  0  0  0  0  0  0  0
   -5.7002   -5.9082    8.5900 O   0  0  0  0  0  0  0  0  0  0  0  0
   -5.3399   -5.4013    5.6188 O   0  0  0  0  0  0  0  0  0  0  0  0
   -2.8920   -4.8452    5.4067 O   0  0  0  0  0  0  0  0  0  0  0  0
   -9.1298   -0.8706   11.8636 H   0  0  0  0  0  0  0  0  0  0  0  0
   -5.2949   -1.2050   15.5038 H   0  0  0  0  0  0  0  0  0  0  0  0
   -7.0164   -1.4223   15.8032 H   0  0  0  0  0  0  0  0  0  0  0  0
   -2.7236   -0.2256   11.4787 H   0  0  0  0  0  0  0  0  0  0  0  0
   -5.5740    0.5887    9.1726 H   0  0  0  0  0  0  0  0  0  0  0  0
    0.0174  -10.7093   16.1556 H   0  0  0  0  0  0  0  0  0  0  0  0
   -2.8461    1.1641    9.7602 H   0  0  0  0  0  0  0  0  0  0  0  0
   -4.2208    2.3160    8.3420 H   0  0  0  0  0  0  0  0  0  0  0  0
   -4.4074   -9.6541   13.8777 H   0  0  0  0  0  0  0  0  0  0  0  0
   -0.8792   -8.6376   12.7678 H   0  0  0  0  0  0  0  0  0  0  0  0
   -2.0310   -1.0285    9.1440 H   0  0  0  0  0  0  0  0  0  0  0  0
   -2.2631    0.4618    6.7339 H   0  0  0  0  0  0  0  0  0  0  0  0
   -4.0416   -1.0386    6.8459 H   0  0  0  0  0  0  0  0  0  0  0  0
   -2.4403  -10.7036   13.0144 H   0  0  0  0  0  0  0  0  0  0  0  0
   -3.1952   -3.3088    8.7095 H   0  0  0  0  0  0  0  0  0  0  0  0
   -2.3404   -2.9533    7.1859 H   0  0  0  0  0  0  0  0  0  0  0  0
   -5.3060   -3.2153    7.0086 H   0  0  0  0  0  0  0  0  0  0  0  0
   -2.0575  -11.7969   15.0796 H   0  0  0  0  0  0  0  0  0  0  0  0
   -3.6707  -10.8157   16.4816 H   0  0  0  0  0  0  0  0  0  0  0  0
   -2.2577  -10.0457   17.2319 H   0  0  0  0  0  0  0  0  0  0  0  0
   -2.5880   -7.2859   13.1160 H   0  0  0  0  0  0  0  0  0  0  0  0
   -4.3233   -7.1846   13.3344 H   0  0  0  0  0  0  0  0  0  0  0  0
   -4.4852   -9.1103   11.5628 H   0  0  0  0  0  0  0  0  0  0  0  0
   -2.7853   -8.7821   11.2283 H   0  0  0  0  0  0  0  0  0  0  0  0
   -3.4576   -6.3175   10.8618 H   0  0  0  0  0  0  0  0  0  0  0  0
   -5.1322   -6.8413   11.0054 H   0  0  0  0  0  0  0  0  0  0  0  0
   -4.7901   -8.4291    9.0682 H   0  0  0  0  0  0  0  0  0  0  0  0
   -3.1131   -7.8835    8.9431 H   0  0  0  0  0  0  0  0  0  0  0  0
   -2.8077   -6.4489    7.2966 H   0  0  0  0  0  0  0  0  0  0  0  0
  1 27  1  0  0  0  0
  1 35  1  0  0  0  0
  1 37  2  0  0  0  0
  1 38  2  0  0  0  0
  2  3  2  0  0  0  0
  2  7  1  0  0  0  0
  3  4  1  0  0  0  0
  3 39  1  0  0  0  0
  4  5  2  0  0  0  0
  5  6  1  0  0  0  0
  5 11  1  0  0  0  0
  6  7  2  0  0  0  0
  6  9  1  0  0  0  0
  7  8  1  0  0  0  0
  8 40  1  0  0  0  0
  8 41  1  0  0  0  0
  9 10  1  0  0  0  0
 10 11  2  0  0  0  0
 10 42  1  0  0  0  0
 11 12  1  0  0  0  0
 12 15  1  0  0  0  0
 12 24  1  0  0  0  0
 12 43  1  6  0  0  0
 13 21  1  0  0  0  0
 13 28  1  0  0  0  0
 13 44  1  0  0  0  0
 14 17  1  0  0  0  0
 14 29  1  0  0  0  0
 15 16  1  0  0  0  0
 15 19  1  0  0  0  0
 15 45  1  1  0  0  0
 16 46  1  0  0  0  0
 17 25  1  0  0  0  0
 17 30  1  0  0  0  0
 17 47  1  6  0  0  0
 18 21  1  0  0  0  0
 18 25  1  0  0  0  0
 18 48  1  0  0  0  0
 19 20  1  0  0  0  0
 19 23  1  0  0  0  0
 19 49  1  1  0  0  0
 20 50  1  0  0  0  0
 21 22  2  0  0  0  0
 23 24  1  0  0  0  0
 23 26  1  0  0  0  0
 23 51  1  6  0  0  0
 25 28  1  0  0  0  0
 25 52  1  6  0  0  0
 26 27  1  0  0  0  0
 26 53  1  0  0  0  0
 26 54  1  0  0  0  0
 27 55  1  0  0  0  0
 28 29  1  0  0  0  0
 28 56  1  6  0  0  0
 29 57  1  0  0  0  0
 29 58  1  0  0  0  0
 30 31  1  0  0  0  0
 30 59  1  0  0  0  0
 30 60  1  0  0  0  0
 31 32  1  0  0  0  0
 31 61  1  0  0  0  0
 31 62  1  0  0  0  0
 32 33  1  0  0  0  0
 32 63  1  0  0  0  0
 32 64  1  0  0  0  0
 33 34  1  0  0  0  0
 33 65  1  0  0  0  0
 33 66  1  0  0  0  0
 34 35  1  0  0  0  0
 34 36  2  0  0  0  0
 35 67  1  0  0  0  0
M  CHG  1  11   1
M  END
$$$$
