BTJ
 OpenBabel04091915423D

 83 84  0  0  1  0  0  0  0  0999 V2000
   17.2692   10.1248    9.0122 C   0  0  0  0  0  0  0  0  0  0  0  0
   17.8347    8.5167   11.5237 N   0  0  0  0  0  0  0  0  0  0  0  0
   17.6647   10.7036   12.3308 O   0  0  0  0  0  0  0  0  0  0  0  0
   16.4774   10.0373   10.2779 C   0  0  1  0  0  0  0  0  0  0  0  0
   15.1754    3.8205   18.2548 N   0  0  0  0  0  0  0  0  0  0  0  0
   16.6306    7.4293   13.7550 O   0  0  0  0  0  0  0  0  0  0  0  0
   17.3766    9.8541   11.5378 C   0  0  0  0  0  0  0  0  0  0  0  0
   15.0361    6.7378   15.9987 O   0  0  0  0  0  0  0  0  0  0  0  0
   18.6780    7.9285   12.5141 C   0  0  0  0  0  0  0  0  0  0  0  0
   17.0795    5.1586   18.0259 O   0  0  0  0  0  0  0  0  0  0  0  0
   18.0136    7.7728   13.8794 C   0  0  0  0  0  0  0  0  0  0  0  0
   15.6080   11.1455   10.3761 N   0  0  0  0  0  0  0  0  0  0  0  0
   16.3551    6.0726   14.1132 C   0  0  0  0  0  0  0  0  0  0  0  0
   11.5697   11.9520   12.3716 N   0  3  0  0  0  0  0  0  0  0  0  0
   14.9917    5.9781   14.7991 C   0  0  0  0  0  0  0  0  0  0  0  0
   14.9339    6.0697   17.2340 C   0  0  0  0  0  0  0  0  0  0  0  0
   15.8671    4.9874   17.8651 C   0  0  0  0  0  0  0  0  0  0  0  0
   14.1904    9.8959   11.6330 O   0  0  0  0  0  0  0  0  0  0  0  0
   14.8921    3.4731   19.6703 C   0  0  0  0  0  0  0  0  0  0  0  0
   12.1007   11.3531   18.9131 O   0  0  0  0  0  0  0  0  0  0  0  0
   15.8476    2.4875   20.3600 C   0  0  0  0  0  0  0  0  0  0  0  0
   13.0092   12.7087   10.2713 O   0  0  0  0  0  0  0  0  0  0  0  0
   13.4625    2.9388   19.9169 C   0  0  0  0  0  0  0  0  0  0  0  0
   14.5183   10.9746   11.1393 C   0  0  0  0  0  0  0  0  0  0  0  0
   13.8172   12.2887   11.3577 C   0  0  2  0  0  0  0  0  0  0  0  0
   13.0232   12.0312   12.6098 C   0  0  1  0  0  0  0  0  0  0  0  0
   13.3431   13.0290   13.6826 C   0  0  0  0  0  0  0  0  0  0  0  0
   13.0051   12.4525   15.0304 C   0  0  0  0  0  0  0  0  0  0  0  0
   12.8798   13.3666   16.0653 C   0  0  0  0  0  0  0  0  0  0  0  0
   12.5792   12.9046   17.3278 C   0  0  0  0  0  0  0  0  0  0  0  0
   12.4118   11.5529   17.6110 C   0  0  0  0  0  0  0  0  0  0  0  0
   12.5629   10.6089   16.6090 C   0  0  0  0  0  0  0  0  0  0  0  0
   12.8430   11.0701   15.3277 C   0  0  0  0  0  0  0  0  0  0  0  0
   11.9500   10.0497   19.4519 C   0  0  0  0  0  0  0  0  0  0  0  0
   13.2663    9.3687   19.7225 C   0  0  0  0  0  0  0  0  0  0  0  0
   13.3378    7.9799   19.8556 C   0  0  0  0  0  0  0  0  0  0  0  0
   14.5427    7.3911   20.2386 C   0  0  0  0  0  0  0  0  0  0  0  0
   15.6889    8.1559   20.4419 C   0  0  0  0  0  0  0  0  0  0  0  0
   15.6224    9.5336   20.3114 C   0  0  0  0  0  0  0  0  0  0  0  0
   14.4221   10.1327   19.9509 C   0  0  0  0  0  0  0  0  0  0  0  0
   16.6091   10.4081    8.1805 H   0  0  0  0  0  0  0  0  0  0  0  0
   17.7002    9.1485    8.8027 H   0  0  0  0  0  0  0  0  0  0  0  0
   18.0637   10.8738    9.0959 H   0  0  0  0  0  0  0  0  0  0  0  0
   17.2558    7.8705   11.0103 H   0  0  0  0  0  0  0  0  0  0  0  0
   15.8253    9.1535   10.1982 H   0  0  0  0  0  0  0  0  0  0  0  0
   15.2956    3.0643   17.5898 H   0  0  0  0  0  0  0  0  0  0  0  0
   19.5947    8.5145   12.5981 H   0  0  0  0  0  0  0  0  0  0  0  0
   18.9340    6.9398   12.1178 H   0  0  0  0  0  0  0  0  0  0  0  0
   18.5758    7.0328   14.4615 H   0  0  0  0  0  0  0  0  0  0  0  0
   18.0687    8.7208   14.4220 H   0  0  0  0  0  0  0  0  0  0  0  0
   15.6830   11.9565    9.7485 H   0  0  0  0  0  0  0  0  0  0  0  0
   17.1079    5.6930   14.8076 H   0  0  0  0  0  0  0  0  0  0  0  0
   16.3663    5.4822   13.1928 H   0  0  0  0  0  0  0  0  0  0  0  0
   11.0912   11.7932   13.2661 H   0  0  0  0  0  0  0  0  0  0  0  0
   11.2298   12.8106   11.9236 H   0  0  0  0  0  0  0  0  0  0  0  0
   14.2352    6.4434   14.1548 H   0  0  0  0  0  0  0  0  0  0  0  0
   14.7137    4.9357   14.9772 H   0  0  0  0  0  0  0  0  0  0  0  0
   13.8905    5.7566   17.3889 H   0  0  0  0  0  0  0  0  0  0  0  0
   15.0781    6.9084   17.9121 H   0  0  0  0  0  0  0  0  0  0  0  0
   14.9750    4.3933   20.2291 H   0  0  0  0  0  0  0  0  0  0  0  0
   15.4229    2.1832   21.3322 H   0  0  0  0  0  0  0  0  0  0  0  0
   16.7928    2.9769   20.5852 H   0  0  0  0  0  0  0  0  0  0  0  0
   16.0209    1.5726   19.7966 H   0  0  0  0  0  0  0  0  0  0  0  0
   13.6174   12.8790    9.5236 H   0  0  0  0  0  0  0  0  0  0  0  0
   13.3629    2.6393   20.9788 H   0  0  0  0  0  0  0  0  0  0  0  0
   13.1968    2.0532   19.3322 H   0  0  0  0  0  0  0  0  0  0  0  0
   12.7116    3.7177   19.7642 H   0  0  0  0  0  0  0  0  0  0  0  0
   14.5954   13.0468   11.5234 H   0  0  0  0  0  0  0  0  0  0  0  0
   13.2721   11.0593   12.9992 H   0  0  0  0  0  0  0  0  0  0  0  0
   12.7818   13.9508   13.4784 H   0  0  0  0  0  0  0  0  0  0  0  0
   14.4113   13.2900   13.6653 H   0  0  0  0  0  0  0  0  0  0  0  0
   13.0118   14.4325   15.8969 H   0  0  0  0  0  0  0  0  0  0  0  0
   12.4736   13.6192   18.1391 H   0  0  0  0  0  0  0  0  0  0  0  0
   12.4803    9.5414   16.7782 H   0  0  0  0  0  0  0  0  0  0  0  0
   12.9340   10.2677   14.5911 H   0  0  0  0  0  0  0  0  0  0  0  0
   11.2512    9.4456   18.8632 H   0  0  0  0  0  0  0  0  0  0  0  0
   11.4796   10.2235   20.4268 H   0  0  0  0  0  0  0  0  0  0  0  0
   12.4759    7.3457   19.6580 H   0  0  0  0  0  0  0  0  0  0  0  0
   14.6072    6.3184   20.3335 H   0  0  0  0  0  0  0  0  0  0  0  0
   16.6336    7.6775   20.6867 H   0  0  0  0  0  0  0  0  0  0  0  0
   16.4987   10.1489   20.4997 H   0  0  0  0  0  0  0  0  0  0  0  0
   14.3953   11.2150   19.8465 H   0  0  0  0  0  0  0  0  0  0  0  0
   11.3682   11.1638   11.7432 H   0  0  0  0  0  0  0  0  0  0  0  0
  1  4  1  0  0  0  0
  1 41  1  0  0  0  0
  1 42  1  0  0  0  0
  1 43  1  0  0  0  0
  2  7  1  0  0  0  0
  2  9  1  0  0  0  0
  2 44  1  0  0  0  0
  3  7  2  0  0  0  0
  4  7  1  0  0  0  0
  4 12  1  0  0  0  0
  4 45  1  6  0  0  0
  5 17  1  0  0  0  0
  5 19  1  0  0  0  0
  5 46  1  0  0  0  0
  6 11  1  0  0  0  0
  6 13  1  0  0  0  0
  8 15  1  0  0  0  0
  8 16  1  0  0  0  0
  9 11  1  0  0  0  0
  9 47  1  0  0  0  0
  9 48  1  0  0  0  0
 10 17  2  0  0  0  0
 11 49  1  0  0  0  0
 11 50  1  0  0  0  0
 12 24  1  0  0  0  0
 12 51  1  0  0  0  0
 13 15  1  0  0  0  0
 13 52  1  0  0  0  0
 13 53  1  0  0  0  0
 14 26  1  0  0  0  0
 14 54  1  0  0  0  0
 14 55  1  0  0  0  0
 14 83  1  0  0  0  0
 15 56  1  0  0  0  0
 15 57  1  0  0  0  0
 16 17  1  0  0  0  0
 16 58  1  0  0  0  0
 16 59  1  0  0  0  0
 18 24  2  0  0  0  0
 19 21  1  0  0  0  0
 19 23  1  0  0  0  0
 19 60  1  0  0  0  0
 20 31  1  0  0  0  0
 20 34  1  0  0  0  0
 21 61  1  0  0  0  0
 21 62  1  0  0  0  0
 21 63  1  0  0  0  0
 22 25  1  0  0  0  0
 22 64  1  0  0  0  0
 23 65  1  0  0  0  0
 23 66  1  0  0  0  0
 23 67  1  0  0  0  0
 24 25  1  0  0  0  0
 25 26  1  0  0  0  0
 25 68  1  1  0  0  0
 26 27  1  0  0  0  0
 26 69  1  1  0  0  0
 27 28  1  0  0  0  0
 27 70  1  0  0  0  0
 27 71  1  0  0  0  0
 28 29  2  0  0  0  0
 28 33  1  0  0  0  0
 29 30  1  0  0  0  0
 29 72  1  0  0  0  0
 30 31  2  0  0  0  0
 30 73  1  0  0  0  0
 31 32  1  0  0  0  0
 32 33  2  0  0  0  0
 32 74  1  0  0  0  0
 33 75  1  0  0  0  0
 34 35  1  0  0  0  0
 34 76  1  0  0  0  0
 34 77  1  0  0  0  0
 35 36  2  0  0  0  0
 35 40  1  0  0  0  0
 36 37  1  0  0  0  0
 36 78  1  0  0  0  0
 37 38  2  0  0  0  0
 37 79  1  0  0  0  0
 38 39  1  0  0  0  0
 38 80  1  0  0  0  0
 39 40  2  0  0  0  0
 39 81  1  0  0  0  0
 40 82  1  0  0  0  0
M  CHG  1  14   1
M  END
$$$$
