BUA
 OpenBabel04091915593D

 13 12  0  0  0  0  0  0  0  0999 V2000
  -34.8575  -25.3332  -44.7559 C   0  0  0  0  0  0  0  0  0  0  0  0
  -35.6504  -24.9039  -43.5322 C   0  0  0  0  0  0  0  0  0  0  0  0
  -35.1977  -23.5274  -43.0605 C   0  0  0  0  0  0  0  0  0  0  0  0
  -36.2687  -22.8452  -42.2114 C   0  0  0  0  0  0  0  0  0  0  0  0
  -36.5272  -21.6506  -42.5424 O   0  0  0  0  0  0  0  0  0  0  0  0
  -36.7615  -23.5415  -41.2805 O   0  0  0  0  0  0  0  0  0  0  0  0
  -35.1807  -26.3208  -45.0952 H   0  0  0  0  0  0  0  0  0  0  0  0
  -33.7879  -25.3752  -44.5304 H   0  0  0  0  0  0  0  0  0  0  0  0
  -35.0087  -24.6245  -45.5769 H   0  0  0  0  0  0  0  0  0  0  0  0
  -35.5064  -25.6392  -42.7316 H   0  0  0  0  0  0  0  0  0  0  0  0
  -36.7186  -24.8986  -43.7792 H   0  0  0  0  0  0  0  0  0  0  0  0
  -34.9645  -22.8913  -43.9224 H   0  0  0  0  0  0  0  0  0  0  0  0
  -34.2800  -23.6190  -42.4687 H   0  0  0  0  0  0  0  0  0  0  0  0
  1  2  1  0  0  0  0
  1  7  1  0  0  0  0
  1  8  1  0  0  0  0
  1  9  1  0  0  0  0
  2  3  1  0  0  0  0
  2 10  1  0  0  0  0
  2 11  1  0  0  0  0
  3  4  1  0  0  0  0
  3 12  1  0  0  0  0
  3 13  1  0  0  0  0
  4  5  2  0  0  0  0
  4  6  1  0  0  0  0
M  END
$$$$
