C1H
 OpenBabel04091914053D

 45 46  0  0  0  0  0  0  0  0999 V2000
    3.9475    9.8283   11.7436 O   0  0  0  0  0  0  0  0  0  0  0  0
    3.1386    9.3895   12.5573 N   0  0  0  0  0  0  0  0  0  0  0  0
   -2.9416    9.1222    8.2732 O   0  0  0  0  0  0  0  0  0  0  0  0
   -6.6120    5.2029   12.7246 O   0  0  0  0  0  0  0  0  0  0  0  0
    2.0939    8.6104   11.9429 O   0  0  0  0  0  0  0  0  0  0  0  0
    1.0532    8.0757   12.7898 C   0  0  0  0  0  0  0  0  0  0  0  0
    0.0094    9.1138   13.2197 C   0  0  0  0  0  0  0  0  0  0  0  0
   -1.2776    9.0908   12.3809 C   0  0  0  0  0  0  0  0  0  0  0  0
   -1.0374    9.2372   10.8746 C   0  0  0  0  0  0  0  0  0  0  0  0
   -2.1779    9.9109   10.2717 O   0  0  0  0  0  0  0  0  0  0  0  0
   -3.0491    9.2165    9.4870 C   0  0  0  0  0  0  0  0  0  0  0  0
   -4.2804    8.6940   10.1567 C   0  0  0  0  0  0  0  0  0  0  0  0
   -4.1921    7.6837   11.1369 C   0  0  0  0  0  0  0  0  0  0  0  0
   -5.3516    7.1526   11.7003 C   0  0  0  0  0  0  0  0  0  0  0  0
   -5.4638    6.0333   13.0512 S   0  0  0  0  0  0  0  0  0  0  0  0
   -4.1506    4.9759   13.1586 N   0  0  0  0  0  0  0  0  0  0  0  0
   -4.3203    3.8781   14.0880 C   0  0  0  0  0  0  0  0  0  0  0  0
   -3.3333    3.0420   14.3442 N   0  0  0  0  0  0  0  0  0  0  0  0
   -3.7148    2.0196   15.2390 N   0  0  0  0  0  0  0  0  0  0  0  0
   -5.2319    1.0577   18.0736 O   0  0  0  0  0  0  0  0  0  0  0  0
   -5.5634    9.0975    9.7148 C   0  0  0  0  0  0  0  0  0  0  0  0
   -6.7309    8.5765   10.2774 C   0  0  0  0  0  0  0  0  0  0  0  0
   -6.6147    7.6119   11.2848 C   0  0  0  0  0  0  0  0  0  0  0  0
   -5.3825    6.8667   14.1982 O   0  0  0  0  0  0  0  0  0  0  0  0
   -5.7727    3.4593   14.9228 S   0  0  0  0  0  0  0  0  0  0  0  0
   -4.9503    2.1848   15.6668 C   0  0  0  0  0  0  0  0  0  0  0  0
   -5.8766    1.1372   16.7997 S   0  0  0  0  0  0  0  0  0  0  0  0
   -5.7351   -0.3768   16.1481 N   0  0  0  0  0  0  0  0  0  0  0  0
   -7.2808    1.5001   16.6948 O   0  0  0  0  0  0  0  0  0  0  0  0
    3.1066    9.5394   13.7855 O   0  0  0  0  0  0  0  0  0  0  0  0
    1.4396    7.5470   13.6739 H   0  0  0  0  0  0  0  0  0  0  0  0
    0.5214    7.3100   12.1914 H   0  0  0  0  0  0  0  0  0  0  0  0
    0.4475   10.1085   13.1488 H   0  0  0  0  0  0  0  0  0  0  0  0
   -0.2728    8.9314   14.2682 H   0  0  0  0  0  0  0  0  0  0  0  0
   -1.9463    9.8888   12.7272 H   0  0  0  0  0  0  0  0  0  0  0  0
   -1.7865    8.1390   12.5665 H   0  0  0  0  0  0  0  0  0  0  0  0
   -0.8933    8.2519   10.4198 H   0  0  0  0  0  0  0  0  0  0  0  0
   -0.1119    9.8210   10.7269 H   0  0  0  0  0  0  0  0  0  0  0  0
   -3.2273    7.3381   11.4594 H   0  0  0  0  0  0  0  0  0  0  0  0
   -3.2671    5.1722   12.7329 H   0  0  0  0  0  0  0  0  0  0  0  0
   -5.6725    9.8477    8.9297 H   0  0  0  0  0  0  0  0  0  0  0  0
   -7.7158    8.8927    9.9745 H   0  0  0  0  0  0  0  0  0  0  0  0
   -7.5135    7.2243   11.7599 H   0  0  0  0  0  0  0  0  0  0  0  0
   -6.0234   -0.5289   15.1889 H   0  0  0  0  0  0  0  0  0  0  0  0
   -5.3109   -1.0731   16.7508 H   0  0  0  0  0  0  0  0  0  0  0  0
  1  2  2  0  0  0  0
  2  5  1  0  0  0  0
  2 30  2  0  0  0  0
  3 11  2  0  0  0  0
  4 15  2  0  0  0  0
  5  6  1  0  0  0  0
  6  7  1  0  0  0  0
  6 31  1  0  0  0  0
  6 32  1  0  0  0  0
  7  8  1  0  0  0  0
  7 33  1  0  0  0  0
  7 34  1  0  0  0  0
  8  9  1  0  0  0  0
  8 35  1  0  0  0  0
  8 36  1  0  0  0  0
  9 10  1  0  0  0  0
  9 37  1  0  0  0  0
  9 38  1  0  0  0  0
 10 11  1  0  0  0  0
 11 12  1  0  0  0  0
 12 13  2  0  0  0  0
 12 21  1  0  0  0  0
 13 14  1  0  0  0  0
 13 39  1  0  0  0  0
 14 15  1  0  0  0  0
 14 23  2  0  0  0  0
 15 16  1  0  0  0  0
 15 24  2  0  0  0  0
 16 17  1  0  0  0  0
 16 40  1  0  0  0  0
 17 18  2  0  0  0  0
 17 25  1  0  0  0  0
 18 19  1  0  0  0  0
 19 26  2  0  0  0  0
 20 27  2  0  0  0  0
 21 22  2  0  0  0  0
 21 41  1  0  0  0  0
 22 23  1  0  0  0  0
 22 42  1  0  0  0  0
 23 43  1  0  0  0  0
 25 26  1  0  0  0  0
 26 27  1  0  0  0  0
 27 28  1  0  0  0  0
 27 29  2  0  0  0  0
 28 44  1  0  0  0  0
 28 45  1  0  0  0  0
M  END
$$$$
