C3P
 OpenBabel04091911293D

 33 34  0  0  1  0  0  0  0  0999 V2000
   32.0845   38.1246   12.1748 P   0  0  0  0  0  0  0  0  0  0  0  0
   32.9067   39.4011   12.0860 O   0  0  0  0  0  0  0  0  0  0  0  0
   32.8771   36.8396   12.0349 O   0  0  0  0  0  0  0  0  0  0  0  0
   31.0464   38.1367   13.2856 O   0  0  0  0  0  0  0  0  0  0  0  0
   31.3094   42.2604    8.9970 O   0  0  0  0  0  0  0  0  0  0  0  0
   30.9138   41.5416   10.1834 C   0  0  0  0  0  0  0  0  0  0  0  0
   30.3039   40.1567    9.8762 C   0  0  1  0  0  0  0  0  0  0  0  0
   29.6549   40.2174    8.5642 O   0  0  0  0  0  0  0  0  0  0  0  0
   31.3688   39.0430    9.8077 C   0  0  1  0  0  0  0  0  0  0  0  0
   31.1460   38.1165   10.8396 O   0  0  0  0  0  0  0  0  0  0  0  0
   31.1093   38.3478    8.4591 C   0  0  2  0  0  0  0  0  0  0  0  0
   32.3088   37.8488    7.8516 O   0  0  0  0  0  0  0  0  0  0  0  0
   30.5919   39.5483    7.6984 C   0  0  1  0  0  0  0  0  0  0  0  0
   30.1089   39.5386    6.3062 N   0  3  0  0  0  0  0  0  0  0  0  0
   29.7635   38.4070    5.5767 C   0  0  0  0  0  0  0  0  0  0  0  0
   29.4142   38.6740    4.2403 N   0  3  0  0  0  0  0  0  0  0  0  0
   29.4016   39.8876    3.6304 C   0  0  0  0  0  0  0  0  0  0  0  0
   29.7776   41.0323    4.4529 C   0  0  0  0  0  0  0  0  0  0  0  0
   30.1073   40.7950    5.7339 C   0  0  0  0  0  0  0  0  0  0  0  0
   29.7351   37.2468    5.9743 O   0  0  0  0  0  0  0  0  0  0  0  0
   29.0676   39.9895    2.3882 N   0  0  0  0  0  0  0  0  0  0  0  0
   30.4917   42.3497    8.4791 H   0  0  0  0  0  0  0  0  0  0  0  0
   30.1701   42.1686   10.6885 H   0  0  0  0  0  0  0  0  0  0  0  0
   31.7808   41.4613   10.8394 H   0  0  0  0  0  0  0  0  0  0  0  0
   29.5452   39.9340   10.6364 H   0  0  0  0  0  0  0  0  0  0  0  0
   32.3840   39.4581    9.8241 H   0  0  0  0  0  0  0  0  0  0  0  0
   30.3788   37.5375    8.5571 H   0  0  0  0  0  0  0  0  0  0  0  0
   32.9635   38.5672    7.8882 H   0  0  0  0  0  0  0  0  0  0  0  0
   31.4682   40.2092    7.6261 H   0  0  0  0  0  0  0  0  0  0  0  0
   29.1723   37.8657    3.6806 H   0  0  0  0  0  0  0  0  0  0  0  0
   29.8100   42.0217    4.0473 H   0  0  0  0  0  0  0  0  0  0  0  0
   30.4096   41.6243    6.3719 H   0  0  0  0  0  0  0  0  0  0  0  0
   29.1108   40.9641    2.0881 H   0  0  0  0  0  0  0  0  0  0  0  0
  1  2  2  0  0  0  0
  1  3  1  0  0  0  0
  1  4  1  0  0  0  0
  1 10  1  0  0  0  0
  5  6  1  0  0  0  0
  5 22  1  0  0  0  0
  6  7  1  0  0  0  0
  6 23  1  0  0  0  0
  6 24  1  0  0  0  0
  7  8  1  0  0  0  0
  7  9  1  0  0  0  0
  7 25  1  1  0  0  0
  8 13  1  0  0  0  0
  9 10  1  0  0  0  0
  9 11  1  0  0  0  0
  9 26  1  1  0  0  0
 11 12  1  0  0  0  0
 11 13  1  0  0  0  0
 11 27  1  1  0  0  0
 12 28  1  0  0  0  0
 13 14  1  0  0  0  0
 13 29  1  6  0  0  0
 14 15  1  0  0  0  0
 14 19  1  0  0  0  0
 15 16  1  0  0  0  0
 15 20  2  0  0  0  0
 16 17  1  0  0  0  0
 16 30  1  0  0  0  0
 17 18  1  0  0  0  0
 17 21  2  0  0  0  0
 18 19  2  0  0  0  0
 18 31  1  0  0  0  0
 19 32  1  0  0  0  0
 21 33  1  0  0  0  0
M  CHG  2  14   1  16   1
M  END
$$$$
