C5P
 OpenBabel04091911303D

 33 34  0  0  1  0  0  0  0  0999 V2000
   30.2482   44.4287    6.8665 O   0  0  0  0  0  0  0  0  0  0  0  0
   30.6290   44.0702    8.2969 P   0  0  0  0  0  0  0  0  0  0  0  0
   32.0648   44.4678    8.5904 O   0  0  0  0  0  0  0  0  0  0  0  0
   29.5758   44.4649    9.3172 O   0  0  0  0  0  0  0  0  0  0  0  0
   30.6425   42.4186    8.3850 O   0  0  0  0  0  0  0  0  0  0  0  0
   30.8388   41.7932    9.6466 C   0  0  0  0  0  0  0  0  0  0  0  0
   30.7840   40.2457    9.5989 C   0  0  1  0  0  0  0  0  0  0  0  0
   29.6459   39.7481    8.8662 O   0  0  0  0  0  0  0  0  0  0  0  0
   32.0355   39.6192    8.9993 C   0  0  1  0  0  0  0  0  0  0  0  0
   32.9187   39.1081   10.0260 O   0  0  0  0  0  0  0  0  0  0  0  0
   31.5261   38.4257    8.2269 C   0  0  1  0  0  0  0  0  0  0  0  0
   31.5479   37.2670    9.1018 O   0  0  0  0  0  0  0  0  0  0  0  0
   30.0737   38.7482    7.9248 C   0  0  2  0  0  0  0  0  0  0  0  0
   29.8612   39.1698    6.5395 N   0  3  0  0  0  0  0  0  0  0  0  0
   29.7725   38.1890    5.5766 C   0  0  0  0  0  0  0  0  0  0  0  0
   29.5429   38.6250    4.2529 N   0  3  0  0  0  0  0  0  0  0  0  0
   29.4437   39.9214    3.8883 C   0  0  0  0  0  0  0  0  0  0  0  0
   29.5659   40.9020    4.9496 C   0  0  0  0  0  0  0  0  0  0  0  0
   29.7724   40.4933    6.2289 C   0  0  0  0  0  0  0  0  0  0  0  0
   29.8724   36.9968    5.8101 O   0  0  0  0  0  0  0  0  0  0  0  0
   29.2434   40.2175    2.6443 N   0  0  0  0  0  0  0  0  0  0  0  0
   30.0642   42.1263   10.3411 H   0  0  0  0  0  0  0  0  0  0  0  0
   31.8225   42.0809   10.0232 H   0  0  0  0  0  0  0  0  0  0  0  0
   30.6869   39.8881   10.6372 H   0  0  0  0  0  0  0  0  0  0  0  0
   32.5757   40.3235    8.3607 H   0  0  0  0  0  0  0  0  0  0  0  0
   32.4008   38.4466   10.5273 H   0  0  0  0  0  0  0  0  0  0  0  0
   32.1162   38.2244    7.3244 H   0  0  0  0  0  0  0  0  0  0  0  0
   32.4719   37.1404    9.3762 H   0  0  0  0  0  0  0  0  0  0  0  0
   29.4719   37.8398    8.1105 H   0  0  0  0  0  0  0  0  0  0  0  0
   29.4692   37.9008    3.5538 H   0  0  0  0  0  0  0  0  0  0  0  0
   29.4846   41.9344    4.6777 H   0  0  0  0  0  0  0  0  0  0  0  0
   29.8429   41.2303    6.9916 H   0  0  0  0  0  0  0  0  0  0  0  0
   29.1869   41.2510    2.5374 H   0  0  0  0  0  0  0  0  0  0  0  0
  1  2  2  0  0  0  0
  2  3  1  0  0  0  0
  2  4  1  0  0  0  0
  2  5  1  0  0  0  0
  5  6  1  0  0  0  0
  6  7  1  0  0  0  0
  6 22  1  0  0  0  0
  6 23  1  0  0  0  0
  7  8  1  0  0  0  0
  7  9  1  0  0  0  0
  7 24  1  1  0  0  0
  8 13  1  0  0  0  0
  9 10  1  0  0  0  0
  9 11  1  0  0  0  0
  9 25  1  6  0  0  0
 10 26  1  0  0  0  0
 11 12  1  0  0  0  0
 11 13  1  0  0  0  0
 11 27  1  6  0  0  0
 12 28  1  0  0  0  0
 13 14  1  0  0  0  0
 13 29  1  1  0  0  0
 14 15  1  0  0  0  0
 14 19  1  0  0  0  0
 15 16  1  0  0  0  0
 15 20  2  0  0  0  0
 16 17  1  0  0  0  0
 16 30  1  0  0  0  0
 17 18  1  0  0  0  0
 17 21  2  0  0  0  0
 18 19  2  0  0  0  0
 18 31  1  0  0  0  0
 19 32  1  0  0  0  0
 21 33  1  0  0  0  0
M  CHG  2  14   1  16   1
M  END
$$$$
