CA2
 OpenBabel04091914003D

 39 40  0  0  1  0  0  0  0  0999 V2000
  -37.9672  -62.9079  -52.4315 O   0  0  0  0  0  0  0  0  0  0  0  0
  -37.7135  -61.7164  -52.0756 C   0  0  0  0  0  0  0  0  0  0  0  0
  -36.5881  -61.1437  -51.9891 O   0  0  0  0  0  0  0  0  0  0  0  0
  -38.9893  -60.8355  -51.7081 C   0  0  2  0  0  0  0  0  0  0  0  0
  -39.0284  -59.6238  -52.4854 O   0  0  0  0  0  0  0  0  0  0  0  0
  -38.8403  -60.4404  -50.2851 C   0  0  0  0  0  0  0  0  0  0  0  0
  -39.8617  -60.3294  -49.4030 C   0  0  0  0  0  0  0  0  0  0  0  0
  -41.3135  -60.5364  -49.7782 C   0  0  1  0  0  0  0  0  0  0  0  0
  -42.1546  -59.4704  -49.3152 O   0  0  0  0  0  0  0  0  0  0  0  0
  -41.4620  -60.6745  -51.3063 C   0  0  2  0  0  0  0  0  0  0  0  0
  -42.7155  -61.2912  -51.6247 O   0  0  0  0  0  0  0  0  0  0  0  0
  -40.3251  -61.5475  -51.8530 C   0  0  0  0  0  0  0  0  0  0  0  0
  -39.4013  -60.1452  -48.0982 C   0  0  0  0  0  0  0  0  0  0  0  0
  -40.0322  -59.9808  -46.9234 C   0  0  0  0  0  0  0  0  0  0  0  0
  -39.0754  -59.6606  -45.8154 C   0  0  0  0  0  0  0  0  0  0  0  0
  -39.2270  -60.6120  -44.7879 O   0  0  0  0  0  0  0  0  0  0  0  0
  -38.0568  -61.0605  -44.2320 C   0  0  0  0  0  0  0  0  0  0  0  0
  -36.8246  -61.1563  -44.8849 C   0  0  0  0  0  0  0  0  0  0  0  0
  -35.7028  -61.6340  -44.2057 C   0  0  0  0  0  0  0  0  0  0  0  0
  -35.8236  -62.0190  -42.8784 C   0  0  0  0  0  0  0  0  0  0  0  0
  -37.0447  -61.9055  -42.2152 C   0  0  0  0  0  0  0  0  0  0  0  0
  -38.1603  -61.4309  -42.9010 C   0  0  0  0  0  0  0  0  0  0  0  0
  -39.0218  -59.9297  -53.4080 H   0  0  0  0  0  0  0  0  0  0  0  0
  -37.8004  -60.3726  -49.9538 H   0  0  0  0  0  0  0  0  0  0  0  0
  -41.6676  -61.4561  -49.2993 H   0  0  0  0  0  0  0  0  0  0  0  0
  -42.1956  -59.5447  -48.3492 H   0  0  0  0  0  0  0  0  0  0  0  0
  -41.4663  -59.6785  -51.7722 H   0  0  0  0  0  0  0  0  0  0  0  0
  -42.7290  -61.3651  -52.5931 H   0  0  0  0  0  0  0  0  0  0  0  0
  -40.3145  -62.4974  -51.2941 H   0  0  0  0  0  0  0  0  0  0  0  0
  -40.5082  -61.8005  -52.8996 H   0  0  0  0  0  0  0  0  0  0  0  0
  -38.3261  -60.1743  -48.0345 H   0  0  0  0  0  0  0  0  0  0  0  0
  -41.0827  -59.9357  -46.7494 H   0  0  0  0  0  0  0  0  0  0  0  0
  -39.2488  -58.6455  -45.4460 H   0  0  0  0  0  0  0  0  0  0  0  0
  -38.0638  -59.6281  -46.2206 H   0  0  0  0  0  0  0  0  0  0  0  0
  -36.6755  -60.9114  -45.9302 H   0  0  0  0  0  0  0  0  0  0  0  0
  -34.7494  -61.7090  -44.7220 H   0  0  0  0  0  0  0  0  0  0  0  0
  -34.9567  -62.4130  -42.3449 H   0  0  0  0  0  0  0  0  0  0  0  0
  -37.1269  -62.1789  -41.1670 H   0  0  0  0  0  0  0  0  0  0  0  0
  -39.1185  -61.3550  -42.3746 H   0  0  0  0  0  0  0  0  0  0  0  0
  1  2  2  0  0  0  0
  2  3  1  0  0  0  0
  4  2  1  6  0  0  0
  4  5  1  0  0  0  0
  4  6  1  0  0  0  0
  4 12  1  0  0  0  0
  5 23  1  0  0  0  0
  6  7  2  0  0  0  0
  6 24  1  0  0  0  0
  7  8  1  0  0  0  0
  7 13  1  0  0  0  0
  8  9  1  0  0  0  0
  8 10  1  0  0  0  0
  8 25  1  1  0  0  0
  9 26  1  0  0  0  0
 10 11  1  0  0  0  0
 10 12  1  0  0  0  0
 10 27  1  6  0  0  0
 11 28  1  0  0  0  0
 12 29  1  0  0  0  0
 12 30  1  0  0  0  0
 13 14  2  0  0  0  0
 13 31  1  0  0  0  0
 14 15  1  0  0  0  0
 14 32  1  0  0  0  0
 15 16  1  0  0  0  0
 15 33  1  0  0  0  0
 15 34  1  0  0  0  0
 16 17  1  0  0  0  0
 17 18  2  0  0  0  0
 17 22  1  0  0  0  0
 18 19  1  0  0  0  0
 18 35  1  0  0  0  0
 19 20  2  0  0  0  0
 19 36  1  0  0  0  0
 20 21  1  0  0  0  0
 20 37  1  0  0  0  0
 21 22  2  0  0  0  0
 21 38  1  0  0  0  0
 22 39  1  0  0  0  0
M  END
$$$$
