CF1
 OpenBabel04091912583D

 33 34  0  0  0  0  0  0  0  0999 V2000
   36.0543    0.7507   52.2128 O   0  0  0  0  0  0  0  0  0  0  0  0
   35.6756   -0.4156   51.8430 C   0  0  0  0  0  0  0  0  0  0  0  0
   36.0821   -1.0285   50.8183 O   0  0  0  0  0  0  0  0  0  0  0  0
   34.6647   -1.1282   52.7332 C   0  0  0  0  0  0  0  0  0  0  0  0
   34.2491   -2.4376   52.4073 C   0  0  0  0  0  0  0  0  0  0  0  0
   33.3264   -3.1179   53.2050 C   0  0  0  0  0  0  0  0  0  0  0  0
   32.8305   -4.3466   52.8613 O   0  0  0  0  0  0  0  0  0  0  0  0
   33.7853   -5.3898   53.0448 C   0  0  0  0  0  0  0  0  0  0  0  0
   32.7690   -2.5009   54.3160 C   0  0  0  0  0  0  0  0  0  0  0  0
   33.1749   -1.2207   54.6594 C   0  0  0  0  0  0  0  0  0  0  0  0
   34.1176   -0.5263   53.8866 C   0  0  0  0  0  0  0  0  0  0  0  0
   34.4762    0.7763   54.2690 N   0  0  0  0  0  0  0  0  0  0  0  0
   33.6495    1.8884   54.5395 C   0  0  0  0  0  0  0  0  0  0  0  0
   34.2649    3.1008   54.8891 C   0  0  0  0  0  0  0  0  0  0  0  0
   35.9847    3.2732   54.8499 Cl  0  0  0  0  0  0  0  0  0  0  0  0
   33.5016    4.1938   55.2906 C   0  0  0  0  0  0  0  0  0  0  0  0
   32.1200    4.0930   55.3530 C   0  0  0  0  0  0  0  0  0  0  0  0
   32.2476    1.8114   54.5843 C   0  0  0  0  0  0  0  0  0  0  0  0
   31.4768    2.8993   55.0009 C   0  0  0  0  0  0  0  0  0  0  0  0
   29.9747    2.8106   55.0862 C   0  0  0  0  0  0  0  0  0  0  0  0
   29.5154    3.1554   56.3250 F   0  0  0  0  0  0  0  0  0  0  0  0
   29.3539    3.6575   54.2176 F   0  0  0  0  0  0  0  0  0  0  0  0
   29.4636    1.5739   54.8374 F   0  0  0  0  0  0  0  0  0  0  0  0
   34.6407   -2.9013   51.5022 H   0  0  0  0  0  0  0  0  0  0  0  0
   33.2976   -6.3252   52.7468 H   0  0  0  0  0  0  0  0  0  0  0  0
   34.0682   -5.4907   54.0991 H   0  0  0  0  0  0  0  0  0  0  0  0
   34.6703   -5.2611   52.4158 H   0  0  0  0  0  0  0  0  0  0  0  0
   32.0195   -3.0005   54.9190 H   0  0  0  0  0  0  0  0  0  0  0  0
   32.7653   -0.7476   55.5462 H   0  0  0  0  0  0  0  0  0  0  0  0
   35.3510    1.0648   53.7883 H   0  0  0  0  0  0  0  0  0  0  0  0
   33.9971    5.1270   55.5610 H   0  0  0  0  0  0  0  0  0  0  0  0
   31.5344    4.9528   55.6803 H   0  0  0  0  0  0  0  0  0  0  0  0
   31.7382    0.8995   54.2825 H   0  0  0  0  0  0  0  0  0  0  0  0
  1  2  2  0  0  0  0
  2  3  1  0  0  0  0
  2  4  1  0  0  0  0
  4  5  2  0  0  0  0
  4 11  1  0  0  0  0
  5  6  1  0  0  0  0
  5 24  1  0  0  0  0
  6  7  1  0  0  0  0
  6  9  2  0  0  0  0
  7  8  1  0  0  0  0
  8 25  1  0  0  0  0
  8 26  1  0  0  0  0
  8 27  1  0  0  0  0
  9 10  1  0  0  0  0
  9 28  1  0  0  0  0
 10 11  2  0  0  0  0
 10 29  1  0  0  0  0
 11 12  1  0  0  0  0
 12 13  1  0  0  0  0
 12 30  1  0  0  0  0
 13 14  2  0  0  0  0
 13 18  1  0  0  0  0
 14 15  1  0  0  0  0
 14 16  1  0  0  0  0
 16 17  2  0  0  0  0
 16 31  1  0  0  0  0
 17 19  1  0  0  0  0
 17 32  1  0  0  0  0
 18 19  2  0  0  0  0
 18 33  1  0  0  0  0
 19 20  1  0  0  0  0
 20 21  1  0  0  0  0
 20 22  1  0  0  0  0
 20 23  1  0  0  0  0
M  END
$$$$
