CHT
 OpenBabel04091914423D

 21 20  0  0  0  0  0  0  0  0999 V2000
   28.9074   30.8581    9.0374 C   0  0  0  0  0  0  0  0  0  0  0  0
   30.1125   29.9622    8.7122 C   0  0  0  0  0  0  0  0  0  0  0  0
   29.5262   27.9651   10.1449 C   0  0  0  0  0  0  0  0  0  0  0  0
   31.1063   27.7339    8.2389 C   0  0  0  0  0  0  0  0  0  0  0  0
   28.6936   28.0159    7.8045 C   0  0  0  0  0  0  0  0  0  0  0  0
   27.9491   30.8282    7.9917 O   0  0  0  0  0  0  0  0  0  0  0  0
   29.8353   28.4273    8.7331 N   0  3  0  0  0  0  0  0  0  0  0  0
   29.2608   31.8922    9.1320 H   0  0  0  0  0  0  0  0  0  0  0  0
   28.4220   30.5861    9.9741 H   0  0  0  0  0  0  0  0  0  0  0  0
   30.9020   30.1305    9.4487 H   0  0  0  0  0  0  0  0  0  0  0  0
   30.4945   30.1900    7.7128 H   0  0  0  0  0  0  0  0  0  0  0  0
   29.3427   26.8902   10.1295 H   0  0  0  0  0  0  0  0  0  0  0  0
   28.6355   28.4888   10.5061 H   0  0  0  0  0  0  0  0  0  0  0  0
   30.3871   28.1972   10.7804 H   0  0  0  0  0  0  0  0  0  0  0  0
   31.2802   28.0375    7.2012 H   0  0  0  0  0  0  0  0  0  0  0  0
   30.9526   26.6555    8.2924 H   0  0  0  0  0  0  0  0  0  0  0  0
   31.9352   28.0409    8.8687 H   0  0  0  0  0  0  0  0  0  0  0  0
   27.7556   28.4489    8.1574 H   0  0  0  0  0  0  0  0  0  0  0  0
   28.6129   26.9199    7.8509 H   0  0  0  0  0  0  0  0  0  0  0  0
   28.9358   28.3256    6.7863 H   0  0  0  0  0  0  0  0  0  0  0  0
   27.2908   31.5264    8.1713 H   0  0  0  0  0  0  0  0  0  0  0  0
  1  2  1  0  0  0  0
  1  6  1  0  0  0  0
  1  8  1  0  0  0  0
  1  9  1  0  0  0  0
  2  7  1  0  0  0  0
  2 10  1  0  0  0  0
  2 11  1  0  0  0  0
  3  7  1  0  0  0  0
  3 12  1  0  0  0  0
  3 13  1  0  0  0  0
  3 14  1  0  0  0  0
  4  7  1  0  0  0  0
  4 15  1  0  0  0  0
  4 16  1  0  0  0  0
  4 17  1  0  0  0  0
  5  7  1  0  0  0  0
  5 18  1  0  0  0  0
  5 19  1  0  0  0  0
  5 20  1  0  0  0  0
  6 21  1  0  0  0  0
M  CHG  1   7   1
M  END
$$$$
