CPB
 OpenBabel04091911403D

 48 51  0  0  1  0  0  0  0  0999 V2000
   43.6908   40.0118   27.8849 C   0  0  0  0  0  0  0  0  0  0  0  0
   42.6897   39.5885   28.9107 N   0  3  1  0  0  0  0  0  0  0  0  0
   41.2936   39.6401   28.3488 C   0  0  0  0  0  0  0  0  0  0  0  0
   40.2781   39.2738   29.4139 C   0  0  0  0  0  0  0  0  0  0  0  0
   40.6046   37.9163   30.0524 C   0  0  1  0  0  0  0  0  0  0  0  0
   42.0507   37.8523   30.5749 C   0  0  1  0  0  0  0  0  0  0  0  0
   43.0257   38.2068   29.4477 C   0  0  0  0  0  0  0  0  0  0  0  0
   39.5565   37.5127   31.0757 C   0  0  0  0  0  0  0  0  0  0  0  0
   38.7214   36.4106   30.8170 C   0  0  0  0  0  0  0  0  0  0  0  0
   38.9355   35.7454   29.6341 O   0  3  0  0  0  0  0  0  0  0  0  0
   38.1509   34.6535   29.3332 C   0  0  0  0  0  0  0  0  0  0  0  0
   37.1793   34.1962   30.1039 C   0  0  0  0  0  0  0  0  0  0  0  0
   36.9105   34.8308   31.3737 C   0  0  0  0  0  0  0  0  0  0  0  0
   36.0090   34.2963   32.0134 O   0  0  0  0  0  0  0  0  0  0  0  0
   37.7377   36.0039   31.7457 C   0  0  0  0  0  0  0  0  0  0  0  0
   37.5449   36.6462   32.9844 C   0  0  0  0  0  0  0  0  0  0  0  0
   36.6936   36.3339   33.8826 O   0  0  0  0  0  0  0  0  0  0  0  0
   38.3925   37.7351   33.2093 C   0  0  0  0  0  0  0  0  0  0  0  0
   39.3533   38.1654   32.2966 C   0  0  0  0  0  0  0  0  0  0  0  0
   40.0802   39.2409   32.7182 O   0  0  0  0  0  0  0  0  0  0  0  0
   38.4527   33.9529   28.0770 C   0  0  0  0  0  0  0  0  0  0  0  0
   38.8476   34.5798   26.8932 C   0  0  0  0  0  0  0  0  0  0  0  0
   39.0489   36.2985   26.7464 Cl  0  0  0  0  0  0  0  0  0  0  0  0
   39.0787   33.8237   25.7405 C   0  0  0  0  0  0  0  0  0  0  0  0
   38.9157   32.4373   25.7586 C   0  0  0  0  0  0  0  0  0  0  0  0
   38.5479   31.7868   26.9251 C   0  0  0  0  0  0  0  0  0  0  0  0
   38.3091   32.5375   28.0737 C   0  0  0  0  0  0  0  0  0  0  0  0
   42.2625   38.8150   31.6127 O   0  0  0  0  0  0  0  0  0  0  0  0
   43.4266   41.0142   27.5405 H   0  0  0  0  0  0  0  0  0  0  0  0
   43.6458   39.2930   27.0622 H   0  0  0  0  0  0  0  0  0  0  0  0
   44.6803   40.0129   28.3474 H   0  0  0  0  0  0  0  0  0  0  0  0
   41.2625   38.9351   27.5104 H   0  0  0  0  0  0  0  0  0  0  0  0
   41.1233   40.6558   27.9801 H   0  0  0  0  0  0  0  0  0  0  0  0
   39.2838   39.2380   28.9525 H   0  0  0  0  0  0  0  0  0  0  0  0
   40.2422   40.0725   30.1599 H   0  0  0  0  0  0  0  0  0  0  0  0
   40.5810   37.1940   29.2280 H   0  0  0  0  0  0  0  0  0  0  0  0
   42.2944   36.8536   30.9537 H   0  0  0  0  0  0  0  0  0  0  0  0
   44.0548   38.2595   29.8210 H   0  0  0  0  0  0  0  0  0  0  0  0
   42.9620   37.5079   28.6089 H   0  0  0  0  0  0  0  0  0  0  0  0
   36.5543   33.3323   29.8974 H   0  0  0  0  0  0  0  0  0  0  0  0
   38.2713   38.2563   34.1549 H   0  0  0  0  0  0  0  0  0  0  0  0
   40.6073   39.5867   31.9874 H   0  0  0  0  0  0  0  0  0  0  0  0
   39.3780   34.3144   24.8185 H   0  0  0  0  0  0  0  0  0  0  0  0
   39.0925   31.8564   24.8535 H   0  0  0  0  0  0  0  0  0  0  0  0
   38.3911   30.7183   26.9527 H   0  0  0  0  0  0  0  0  0  0  0  0
   38.0111   32.0086   28.9703 H   0  0  0  0  0  0  0  0  0  0  0  0
   41.8416   38.4313   32.4235 H   0  0  0  0  0  0  0  0  0  0  0  0
   42.7434   40.2324   29.7201 H   0  0  0  0  0  0  0  0  0  0  0  0
  1  2  1  0  0  0  0
  1 29  1  0  0  0  0
  1 30  1  0  0  0  0
  1 31  1  0  0  0  0
  2  3  1  0  0  0  0
  2  7  1  0  0  0  0
  2 48  1  1  0  0  0
  3  4  1  0  0  0  0
  3 32  1  0  0  0  0
  3 33  1  0  0  0  0
  4  5  1  0  0  0  0
  4 34  1  0  0  0  0
  4 35  1  0  0  0  0
  5  6  1  0  0  0  0
  5  8  1  0  0  0  0
  5 36  1  6  0  0  0
  6  7  1  0  0  0  0
  6 28  1  0  0  0  0
  6 37  1  1  0  0  0
  7 38  1  0  0  0  0
  7 39  1  0  0  0  0
  8  9  2  0  0  0  0
  8 19  1  0  0  0  0
  9 10  1  0  0  0  0
  9 15  1  0  0  0  0
 10 11  1  0  0  0  0
 11 12  2  0  0  0  0
 11 21  1  0  0  0  0
 12 13  1  0  0  0  0
 12 40  1  0  0  0  0
 13 14  2  0  0  0  0
 13 15  1  0  0  0  0
 15 16  2  0  0  0  0
 16 17  1  0  0  0  0
 16 18  1  0  0  0  0
 18 19  2  0  0  0  0
 18 41  1  0  0  0  0
 19 20  1  0  0  0  0
 20 42  1  0  0  0  0
 21 22  2  0  0  0  0
 21 27  1  0  0  0  0
 22 23  1  0  0  0  0
 22 24  1  0  0  0  0
 24 25  2  0  0  0  0
 24 43  1  0  0  0  0
 25 26  1  0  0  0  0
 25 44  1  0  0  0  0
 26 27  2  0  0  0  0
 26 45  1  0  0  0  0
 27 46  1  0  0  0  0
 28 47  1  0  0  0  0
M  CHG  2   2   1  10   1
M  END
$$$$
