CTI
 OpenBabel04091910543D

 45 49  0  0  0  0  0  0  0  0999 V2000
   20.3286  -10.1581   22.4128 C   0  0  0  0  0  0  0  0  0  0  0  0
   19.0405   -9.9361   21.8780 C   0  0  0  0  0  0  0  0  0  0  0  0
   18.8442  -10.4074   20.5549 C   0  0  0  0  0  0  0  0  0  0  0  0
   19.9277  -10.9942   19.8242 C   0  0  0  0  0  0  0  0  0  0  0  0
   17.9912   -9.3046   22.6463 C   0  0  0  0  0  0  0  0  0  0  0  0
   16.6697   -9.2557   22.0590 C   0  0  0  0  0  0  0  0  0  0  0  0
   16.4932   -9.7747   20.7439 C   0  0  0  0  0  0  0  0  0  0  0  0
   17.5447  -10.3199   20.0152 C   0  0  0  0  0  0  0  0  0  0  0  0
   18.2161   -8.6859   23.8814 N   0  0  0  0  0  0  0  0  0  0  0  0
   15.5182   -8.6745   22.8238 C   0  0  0  0  0  0  0  0  0  0  0  0
   15.7541   -8.1906   24.1207 C   0  0  0  0  0  0  0  0  0  0  0  0
   17.1174   -8.1888   24.6777 C   0  0  0  0  0  0  0  0  0  0  0  0
   19.4162   -8.5888   24.7186 C   0  0  0  0  0  0  0  0  0  0  0  0
   13.4539   -7.5191   24.4174 C   0  0  0  0  0  0  0  0  0  0  0  0
   13.1869   -7.9564   23.1205 C   0  0  0  0  0  0  0  0  0  0  0  0
   14.2141   -8.5504   22.3426 C   0  0  0  0  0  0  0  0  0  0  0  0
   14.7395   -7.6367   24.9383 C   0  0  0  0  0  0  0  0  0  0  0  0
   15.0804   -6.9700   26.1002 O   0  0  0  0  0  0  0  0  0  0  0  0
   15.3691   -7.7516   27.2710 C   0  0  0  0  0  0  0  0  0  0  0  0
   12.4225   -6.9011   25.0777 O   0  0  0  0  0  0  0  0  0  0  0  0
   12.1477   -7.5459   26.3222 C   0  0  0  0  0  0  0  0  0  0  0  0
   21.3580  -10.6317   21.6762 C   0  0  0  0  0  0  0  0  0  0  0  0
   21.1829  -11.0852   20.4116 C   0  0  0  0  0  0  0  0  0  0  0  0
   22.6084  -10.7935   22.1749 O   0  0  0  0  0  0  0  0  0  0  0  0
   23.1477  -11.6419   21.1604 C   0  0  0  0  0  0  0  0  0  0  0  0
   22.3194  -11.6660   19.9555 O   0  0  0  0  0  0  0  0  0  0  0  0
   20.5626  -10.1112   23.4484 H   0  0  0  0  0  0  0  0  0  0  0  0
   19.7755  -11.4070   18.8323 H   0  0  0  0  0  0  0  0  0  0  0  0
   15.5168   -9.7408   20.2672 H   0  0  0  0  0  0  0  0  0  0  0  0
   17.3508  -10.7015   19.0072 H   0  0  0  0  0  0  0  0  0  0  0  0
   17.3575   -7.1577   24.9668 H   0  0  0  0  0  0  0  0  0  0  0  0
   17.0938   -8.8274   25.5607 H   0  0  0  0  0  0  0  0  0  0  0  0
   20.3966   -8.6239   24.2626 H   0  0  0  0  0  0  0  0  0  0  0  0
   19.3472   -9.3137   25.5395 H   0  0  0  0  0  0  0  0  0  0  0  0
   19.4558   -7.5846   25.1556 H   0  0  0  0  0  0  0  0  0  0  0  0
   12.1887   -7.8313   22.6901 H   0  0  0  0  0  0  0  0  0  0  0  0
   13.9266   -8.8635   21.3425 H   0  0  0  0  0  0  0  0  0  0  0  0
   15.5052   -7.0431   28.0972 H   0  0  0  0  0  0  0  0  0  0  0  0
   16.2908   -8.3282   27.2149 H   0  0  0  0  0  0  0  0  0  0  0  0
   14.5604   -8.4326   27.5459 H   0  0  0  0  0  0  0  0  0  0  0  0
   11.3113   -7.0350   26.8036 H   0  0  0  0  0  0  0  0  0  0  0  0
   12.9626   -7.4422   27.0228 H   0  0  0  0  0  0  0  0  0  0  0  0
   11.9000   -8.6000   26.1712 H   0  0  0  0  0  0  0  0  0  0  0  0
   23.2002  -12.6506   21.5903 H   0  0  0  0  0  0  0  0  0  0  0  0
   24.1637  -11.3023   20.9311 H   0  0  0  0  0  0  0  0  0  0  0  0
  1  2  2  0  0  0  0
  1 22  1  0  0  0  0
  1 27  1  0  0  0  0
  2  3  1  0  0  0  0
  2  5  1  0  0  0  0
  3  4  2  0  0  0  0
  3  8  1  0  0  0  0
  4 23  1  0  0  0  0
  4 28  1  0  0  0  0
  5  6  2  0  0  0  0
  5  9  1  0  0  0  0
  6  7  1  0  0  0  0
  6 10  1  0  0  0  0
  7  8  2  0  0  0  0
  7 29  1  0  0  0  0
  8 30  1  0  0  0  0
  9 12  1  0  0  0  0
  9 13  1  0  0  0  0
 10 11  2  0  0  0  0
 10 16  1  0  0  0  0
 11 12  1  0  0  0  0
 11 17  1  0  0  0  0
 12 31  1  0  0  0  0
 12 32  1  0  0  0  0
 13 33  1  0  0  0  0
 13 34  1  0  0  0  0
 13 35  1  0  0  0  0
 14 15  1  0  0  0  0
 14 17  2  0  0  0  0
 14 20  1  0  0  0  0
 15 16  2  0  0  0  0
 15 36  1  0  0  0  0
 16 37  1  0  0  0  0
 17 18  1  0  0  0  0
 18 19  1  0  0  0  0
 19 38  1  0  0  0  0
 19 39  1  0  0  0  0
 19 40  1  0  0  0  0
 20 21  1  0  0  0  0
 21 41  1  0  0  0  0
 21 42  1  0  0  0  0
 21 43  1  0  0  0  0
 22 23  2  0  0  0  0
 22 24  1  0  0  0  0
 23 26  1  0  0  0  0
 24 25  1  0  0  0  0
 25 26  1  0  0  0  0
 25 44  1  0  0  0  0
 25 45  1  0  0  0  0
M  END
$$$$
