CTV
 OpenBabel04091915093D

 33 32  0  0  1  0  0  0  0  0999 V2000
    8.4021   10.4654   29.5845 C   0  0  0  0  0  0  0  0  0  0  0  0
    8.2936   14.8437   33.4467 N   0  3  0  0  0  0  0  0  0  0  0  0
    7.9832   12.5376   28.3390 C   0  0  0  0  0  0  0  0  0  0  0  0
    8.3194   11.7863   29.6109 C   0  0  0  0  0  0  0  0  0  0  0  0
    8.5020   12.6543   30.8403 C   0  0  0  0  0  0  0  0  0  0  0  0
    9.9017   12.5618   31.4447 C   0  0  0  0  0  0  0  0  0  0  0  0
   10.0235   11.3886   32.4224 C   0  0  0  0  0  0  0  0  0  0  0  0
   10.1946   11.6736   33.9264 C   0  0  1  0  0  0  0  0  0  0  0  0
    9.3195   12.7250   34.6722 C   0  0  0  0  0  0  0  0  0  0  0  0
   10.2581   10.3328   34.7112 C   0  0  0  0  0  0  0  0  0  0  0  0
    9.3975   14.1883   34.1961 C   0  0  0  0  0  0  0  0  0  0  0  0
    8.2495    9.9010   28.6717 H   0  0  0  0  0  0  0  0  0  0  0  0
    8.6044    9.8512   30.4697 H   0  0  0  0  0  0  0  0  0  0  0  0
    8.7161   15.6701   32.9972 H   0  0  0  0  0  0  0  0  0  0  0  0
    7.8272   14.3383   32.6806 H   0  0  0  0  0  0  0  0  0  0  0  0
    8.1842   13.5997   28.4349 H   0  0  0  0  0  0  0  0  0  0  0  0
    6.9280   12.3940   28.1270 H   0  0  0  0  0  0  0  0  0  0  0  0
    8.5892   12.1632   27.5056 H   0  0  0  0  0  0  0  0  0  0  0  0
    7.7377   12.3785   31.5899 H   0  0  0  0  0  0  0  0  0  0  0  0
    8.2999   13.6856   30.5893 H   0  0  0  0  0  0  0  0  0  0  0  0
   10.1582   13.5235   31.8776 H   0  0  0  0  0  0  0  0  0  0  0  0
   10.6538   12.4611   30.6458 H   0  0  0  0  0  0  0  0  0  0  0  0
   10.9269   10.8369   32.1175 H   0  0  0  0  0  0  0  0  0  0  0  0
    9.2045   10.6753   32.2907 H   0  0  0  0  0  0  0  0  0  0  0  0
   11.2206   12.0716   33.9922 H   0  0  0  0  0  0  0  0  0  0  0  0
    9.8812   12.7961   35.6190 H   0  0  0  0  0  0  0  0  0  0  0  0
    8.3410   12.3632   35.0200 H   0  0  0  0  0  0  0  0  0  0  0  0
   10.6164    9.5035   34.0901 H   0  0  0  0  0  0  0  0  0  0  0  0
    9.2983   10.0295   35.1467 H   0  0  0  0  0  0  0  0  0  0  0  0
   10.9713   10.4287   35.5401 H   0  0  0  0  0  0  0  0  0  0  0  0
    9.5367   14.8339   35.0573 H   0  0  0  0  0  0  0  0  0  0  0  0
   10.2871   14.3118   33.5846 H   0  0  0  0  0  0  0  0  0  0  0  0
    7.5584   15.2374   34.0527 H   0  0  0  0  0  0  0  0  0  0  0  0
  1  4  2  0  0  0  0
  1 12  1  0  0  0  0
  1 13  1  0  0  0  0
  2 11  1  0  0  0  0
  2 14  1  0  0  0  0
  2 15  1  0  0  0  0
  2 33  1  0  0  0  0
  3  4  1  0  0  0  0
  3 16  1  0  0  0  0
  3 17  1  0  0  0  0
  3 18  1  0  0  0  0
  4  5  1  0  0  0  0
  5  6  1  0  0  0  0
  5 19  1  0  0  0  0
  5 20  1  0  0  0  0
  6  7  1  0  0  0  0
  6 21  1  0  0  0  0
  6 22  1  0  0  0  0
  7  8  1  0  0  0  0
  7 23  1  0  0  0  0
  7 24  1  0  0  0  0
  8  9  1  0  0  0  0
  8 10  1  0  0  0  0
  8 25  1  1  0  0  0
  9 11  1  0  0  0  0
  9 26  1  0  0  0  0
  9 27  1  0  0  0  0
 10 28  1  0  0  0  0
 10 29  1  0  0  0  0
 10 30  1  0  0  0  0
 11 31  1  0  0  0  0
 11 32  1  0  0  0  0
M  CHG  1   2   1
M  END
$$$$
