CW1
 OpenBabel04091911373D

 98103  0  0  1  0  0  0  0  0999 V2000
  -21.0594  -19.6875  -23.5086 O   0  0  0  0  0  0  0  0  0  0  0  0
  -20.6255  -20.7815  -23.3931 C   0  0  0  0  0  0  0  0  0  0  0  0
  -19.2715  -21.0935  -23.3901 O   0  0  0  0  0  0  0  0  0  0  0  0
  -18.4789  -19.9050  -23.5326 C   0  0  0  0  0  0  0  0  0  0  0  0
  -17.8263  -19.9765  -24.8711 C   0  0  0  0  0  0  0  0  0  0  0  0
  -16.3005  -19.9753  -24.9452 C   0  0  2  0  0  0  0  0  0  0  0  0
  -15.6172  -21.3677  -25.1371 C   0  0  0  0  0  0  0  0  0  0  0  0
  -15.4084  -19.0282  -24.2733 O   0  0  0  0  0  0  0  0  0  0  0  0
  -14.8466  -18.3188  -25.4207 C   0  0  1  0  0  0  0  0  0  0  0  0
  -13.4246  -17.7425  -25.5161 C   0  0  1  0  0  0  0  0  0  0  0  0
  -13.2544  -16.5092  -24.8405 O   0  0  0  0  0  0  0  0  0  0  0  0
  -12.3572  -18.8090  -25.3204 C   0  0  0  0  0  0  0  0  0  0  0  0
  -11.5392  -18.5593  -24.1938 O   0  0  0  0  0  0  0  0  0  0  0  0
  -12.3191  -18.9530  -23.0720 C   0  0  0  0  0  0  0  0  0  0  0  0
  -14.8893  -19.2781  -26.5272 O   0  0  0  0  0  0  0  0  0  0  0  0
  -16.2627  -19.4462  -26.3946 C   0  0  2  0  0  0  0  0  0  0  0  0
  -16.7451  -18.1046  -26.6663 O   0  0  0  0  0  0  0  0  0  0  0  0
  -15.9027  -17.2951  -25.8048 C   0  0  2  0  0  0  0  0  0  0  0  0
  -15.1911  -16.0807  -26.4053 C   0  0  1  0  0  0  0  0  0  0  0  0
  -16.1198  -15.1073  -26.8383 O   0  0  0  0  0  0  0  0  0  0  0  0
  -14.1673  -15.5189  -25.3327 C   0  0  1  0  0  0  0  0  0  0  0  0
  -14.9196  -15.0719  -24.2134 O   0  0  0  0  0  0  0  0  0  0  0  0
  -14.1873  -14.1633  -23.3809 C   0  0  2  0  0  0  0  0  0  0  0  0
  -14.0791  -14.8069  -21.9938 C   0  0  0  0  0  0  0  0  0  0  0  0
  -15.0194  -15.4599  -21.2937 C   0  0  0  0  0  0  0  0  0  0  0  0
  -16.5002  -15.5392  -21.6815 C   0  0  0  0  0  0  0  0  0  0  0  0
  -17.1914  -16.9081  -21.6689 C   0  0  0  0  0  0  0  0  0  0  0  0
  -17.2608  -14.5010  -20.8558 C   0  0  0  0  0  0  0  0  0  0  0  0
  -14.4615  -15.9375  -19.9652 C   0  0  0  0  0  0  0  0  0  0  0  0
  -12.9471  -15.9041  -20.2129 C   0  0  0  0  0  0  0  0  0  0  0  0
  -12.7409  -14.7832  -21.2575 C   0  0  1  0  0  0  0  0  0  0  0  0
  -11.5546  -15.0792  -22.1646 C   0  0  0  0  0  0  0  0  0  0  0  0
  -12.4350  -13.5075  -20.4830 C   0  0  0  0  0  0  0  0  0  0  0  0
  -13.0058  -12.3314  -20.4362 C   0  0  0  0  0  0  0  0  0  0  0  0
  -12.6621  -11.1898  -19.4582 C   0  0  2  0  0  0  0  0  0  0  0  0
  -11.4328  -10.3410  -19.8214 C   0  0  0  0  0  0  0  0  0  0  0  0
  -10.5050  -10.5010  -18.7434 O   0  0  0  0  0  0  0  0  0  0  0  0
   -9.2603   -9.9137  -19.0130 C   0  0  0  0  0  0  0  0  0  0  0  0
  -12.5150  -11.7389  -18.1396 O   0  0  0  0  0  0  0  0  0  0  0  0
  -13.8784  -10.3051  -19.3770 C   0  0  0  0  0  0  0  0  0  0  0  0
  -14.6891  -10.5321  -20.6256 C   0  0  0  0  0  0  0  0  0  0  0  0
  -14.2553  -11.8742  -21.2091 C   0  0  1  0  0  0  0  0  0  0  0  0
  -14.1776  -11.6843  -22.7411 C   0  0  1  0  0  0  0  0  0  0  0  0
  -12.7770  -11.4511  -23.3253 C   0  0  0  0  0  0  0  0  0  0  0  0
  -14.9640  -12.8290  -23.3913 C   0  0  1  0  0  0  0  0  0  0  0  0
  -15.3610  -12.4151  -24.7084 O   0  0  0  0  0  0  0  0  0  0  0  0
  -21.2529  -21.6682  -23.2684 H   0  0  0  0  0  0  0  0  0  0  0  0
  -17.7324  -19.8520  -22.7440 H   0  0  0  0  0  0  0  0  0  0  0  0
  -19.0880  -18.9961  -23.4695 H   0  0  0  0  0  0  0  0  0  0  0  0
  -18.1752  -19.0972  -25.4323 H   0  0  0  0  0  0  0  0  0  0  0  0
  -18.2044  -20.8442  -25.4432 H   0  0  0  0  0  0  0  0  0  0  0  0
  -14.5297  -21.3246  -24.9733 H   0  0  0  0  0  0  0  0  0  0  0  0
  -15.7450  -21.6233  -26.1985 H   0  0  0  0  0  0  0  0  0  0  0  0
  -16.0314  -22.2210  -24.5874 H   0  0  0  0  0  0  0  0  0  0  0  0
  -13.2384  -17.4840  -26.5673 H   0  0  0  0  0  0  0  0  0  0  0  0
  -11.7302  -18.8876  -26.2202 H   0  0  0  0  0  0  0  0  0  0  0  0
  -12.8314  -19.7893  -25.1867 H   0  0  0  0  0  0  0  0  0  0  0  0
  -11.7606  -18.7767  -22.1623 H   0  0  0  0  0  0  0  0  0  0  0  0
  -12.5518  -20.0148  -23.1677 H   0  0  0  0  0  0  0  0  0  0  0  0
  -13.2454  -18.3798  -23.0520 H   0  0  0  0  0  0  0  0  0  0  0  0
  -16.7607  -20.1947  -27.0270 H   0  0  0  0  0  0  0  0  0  0  0  0
  -16.5497  -16.9636  -24.9807 H   0  0  0  0  0  0  0  0  0  0  0  0
  -14.6174  -16.3978  -27.2926 H   0  0  0  0  0  0  0  0  0  0  0  0
  -16.6849  -15.5490  -27.5093 H   0  0  0  0  0  0  0  0  0  0  0  0
  -13.6174  -14.6788  -25.7782 H   0  0  0  0  0  0  0  0  0  0  0  0
  -13.2093  -13.9765  -23.8182 H   0  0  0  0  0  0  0  0  0  0  0  0
  -16.5821  -15.2136  -22.7212 H   0  0  0  0  0  0  0  0  0  0  0  0
  -18.2452  -16.8278  -21.9909 H   0  0  0  0  0  0  0  0  0  0  0  0
  -17.1859  -17.3586  -20.6715 H   0  0  0  0  0  0  0  0  0  0  0  0
  -16.7020  -17.6030  -22.3621 H   0  0  0  0  0  0  0  0  0  0  0  0
  -16.7533  -13.5354  -20.8896 H   0  0  0  0  0  0  0  0  0  0  0  0
  -17.3262  -14.7962  -19.8049 H   0  0  0  0  0  0  0  0  0  0  0  0
  -18.2728  -14.3340  -21.2399 H   0  0  0  0  0  0  0  0  0  0  0  0
  -14.7752  -16.9453  -19.6812 H   0  0  0  0  0  0  0  0  0  0  0  0
  -14.7223  -15.2415  -19.1577 H   0  0  0  0  0  0  0  0  0  0  0  0
  -12.5929  -16.8693  -20.5984 H   0  0  0  0  0  0  0  0  0  0  0  0
  -12.3942  -15.7134  -19.2752 H   0  0  0  0  0  0  0  0  0  0  0  0
  -11.4001  -14.2714  -22.8874 H   0  0  0  0  0  0  0  0  0  0  0  0
  -11.7190  -16.0037  -22.7198 H   0  0  0  0  0  0  0  0  0  0  0  0
  -10.6251  -15.1761  -21.5925 H   0  0  0  0  0  0  0  0  0  0  0  0
  -11.5483  -13.6967  -19.8140 H   0  0  0  0  0  0  0  0  0  0  0  0
  -11.6932   -9.2761  -19.9313 H   0  0  0  0  0  0  0  0  0  0  0  0
  -10.9853  -10.6697  -20.7654 H   0  0  0  0  0  0  0  0  0  0  0  0
   -8.6020  -10.0754  -18.1563 H   0  0  0  0  0  0  0  0  0  0  0  0
   -9.3895   -8.8470  -19.1776 H   0  0  0  0  0  0  0  0  0  0  0  0
   -8.8326  -10.3899  -19.8917 H   0  0  0  0  0  0  0  0  0  0  0  0
  -11.6667  -12.2194  -18.1283 H   0  0  0  0  0  0  0  0  0  0  0  0
  -13.6035   -9.2455  -19.2977 H   0  0  0  0  0  0  0  0  0  0  0  0
  -14.4631  -10.5590  -18.4890 H   0  0  0  0  0  0  0  0  0  0  0  0
  -14.5038   -9.7195  -21.3368 H   0  0  0  0  0  0  0  0  0  0  0  0
  -15.7612  -10.5242  -20.3892 H   0  0  0  0  0  0  0  0  0  0  0  0
  -15.0447  -12.5869  -20.9660 H   0  0  0  0  0  0  0  0  0  0  0  0
  -14.7328  -10.7698  -23.0005 H   0  0  0  0  0  0  0  0  0  0  0  0
  -12.8166  -11.3304  -24.4156 H   0  0  0  0  0  0  0  0  0  0  0  0
  -12.1026  -12.2807  -23.1119 H   0  0  0  0  0  0  0  0  0  0  0  0
  -12.3215  -10.5455  -22.9076 H   0  0  0  0  0  0  0  0  0  0  0  0
  -15.8952  -12.9632  -22.8318 H   0  0  0  0  0  0  0  0  0  0  0  0
  -15.8780  -13.1541  -25.1027 H   0  0  0  0  0  0  0  0  0  0  0  0
  1  2  2  0  0  0  0
  2  3  1  0  0  0  0
  2 47  1  0  0  0  0
  3  4  1  0  0  0  0
  4  5  1  0  0  0  0
  4 48  1  0  0  0  0
  4 49  1  0  0  0  0
  5 50  1  0  0  0  0
  5 51  1  0  0  0  0
  6  5  1  1  0  0  0
  6  7  1  0  0  0  0
  6  8  1  0  0  0  0
  6 16  1  0  0  0  0
  7 52  1  0  0  0  0
  7 53  1  0  0  0  0
  7 54  1  0  0  0  0
  9  8  1  1  0  0  0
  9 10  1  0  0  0  0
  9 15  1  0  0  0  0
  9 18  1  0  0  0  0
 10 11  1  0  0  0  0
 10 12  1  0  0  0  0
 10 55  1  6  0  0  0
 11 21  1  0  0  0  0
 12 13  1  0  0  0  0
 12 56  1  0  0  0  0
 12 57  1  0  0  0  0
 13 14  1  0  0  0  0
 14 58  1  0  0  0  0
 14 59  1  0  0  0  0
 14 60  1  0  0  0  0
 15 16  1  0  0  0  0
 16 17  1  0  0  0  0
 16 61  1  6  0  0  0
 17 18  1  0  0  0  0
 18 19  1  0  0  0  0
 18 62  1  1  0  0  0
 19 20  1  0  0  0  0
 19 21  1  0  0  0  0
 19 63  1  6  0  0  0
 20 64  1  0  0  0  0
 21 22  1  0  0  0  0
 21 65  1  6  0  0  0
 22 23  1  0  0  0  0
 23 24  1  0  0  0  0
 23 45  1  0  0  0  0
 23 66  1  6  0  0  0
 24 25  2  0  0  0  0
 24 31  1  0  0  0  0
 25 26  1  0  0  0  0
 25 29  1  0  0  0  0
 26 27  1  0  0  0  0
 26 28  1  0  0  0  0
 26 67  1  0  0  0  0
 27 68  1  0  0  0  0
 27 69  1  0  0  0  0
 27 70  1  0  0  0  0
 28 71  1  0  0  0  0
 28 72  1  0  0  0  0
 28 73  1  0  0  0  0
 29 30  1  0  0  0  0
 29 74  1  0  0  0  0
 29 75  1  0  0  0  0
 30 31  1  0  0  0  0
 30 76  1  0  0  0  0
 30 77  1  0  0  0  0
 31 32  1  6  0  0  0
 31 33  1  0  0  0  0
 32 78  1  0  0  0  0
 32 79  1  0  0  0  0
 32 80  1  0  0  0  0
 33 34  2  0  0  0  0
 33 81  1  0  0  0  0
 34 35  1  0  0  0  0
 34 42  1  0  0  0  0
 35 36  1  6  0  0  0
 35 39  1  0  0  0  0
 35 40  1  0  0  0  0
 36 37  1  0  0  0  0
 36 82  1  0  0  0  0
 36 83  1  0  0  0  0
 37 38  1  0  0  0  0
 38 84  1  0  0  0  0
 38 85  1  0  0  0  0
 38 86  1  0  0  0  0
 39 87  1  0  0  0  0
 40 41  1  0  0  0  0
 40 88  1  0  0  0  0
 40 89  1  0  0  0  0
 41 42  1  0  0  0  0
 41 90  1  0  0  0  0
 41 91  1  0  0  0  0
 42 43  1  0  0  0  0
 42 92  1  1  0  0  0
 43 44  1  0  0  0  0
 43 45  1  0  0  0  0
 43 93  1  6  0  0  0
 44 94  1  0  0  0  0
 44 95  1  0  0  0  0
 44 96  1  0  0  0  0
 45 46  1  0  0  0  0
 45 97  1  1  0  0  0
 46 98  1  0  0  0  0
M  END
$$$$
