CWD
 OpenBabel04091915043D

 23 23  0  0  1  0  0  0  0  0999 V2000
  -19.9669   -1.0781  -19.3193 N   0  3  0  0  0  0  0  0  0  0  0  0
  -18.6596   -0.6196  -19.5040 C   0  0  0  0  0  0  0  0  0  0  0  0
  -17.7127   -1.3597  -19.7305 O   0  0  0  0  0  0  0  0  0  0  0  0
  -18.4888    0.7318  -19.4682 N   0  3  0  0  0  0  0  0  0  0  0  0
  -19.4712    1.6748  -19.3276 C   0  0  0  0  0  0  0  0  0  0  0  0
  -19.2247    2.8660  -19.3885 O   0  0  0  0  0  0  0  0  0  0  0  0
  -20.8386    1.1282  -19.1094 C   0  0  0  0  0  0  0  0  0  0  0  0
  -22.1409    2.2236  -18.8851 Cl  0  0  0  0  0  0  0  0  0  0  0  0
  -21.0163   -0.1971  -19.1160 C   0  0  0  0  0  0  0  0  0  0  0  0
  -20.1758   -2.5347  -19.3498 C   0  0  0  0  0  0  0  0  0  0  0  0
  -20.0666   -3.0843  -20.7771 C   0  0  2  0  0  0  0  0  0  0  0  0
  -21.3208   -2.7009  -21.5669 N   0  3  0  0  0  0  0  0  0  0  0  0
  -19.8053   -4.6077  -20.7586 C   0  0  0  0  0  0  0  0  0  0  0  0
  -20.6852   -5.2156  -21.4419 O   0  0  0  0  0  0  0  0  0  0  0  0
  -18.8044   -5.0101  -20.1253 O   0  0  0  0  0  0  0  0  0  0  0  0
  -17.5508    1.0617  -19.6222 H   0  0  0  0  0  0  0  0  0  0  0  0
  -22.0016   -0.6276  -18.9451 H   0  0  0  0  0  0  0  0  0  0  0  0
  -21.1485   -2.7763  -18.9037 H   0  0  0  0  0  0  0  0  0  0  0  0
  -19.4161   -2.9848  -18.7002 H   0  0  0  0  0  0  0  0  0  0  0  0
  -19.2483   -2.6289  -21.3370 H   0  0  0  0  0  0  0  0  0  0  0  0
  -21.2459   -3.2367  -22.4453 H   0  0  0  0  0  0  0  0  0  0  0  0
  -22.1469   -3.1111  -21.1193 H   0  0  0  0  0  0  0  0  0  0  0  0
  -21.4007   -1.6987  -21.7368 H   0  0  0  0  0  0  0  0  0  0  0  0
  1  2  1  0  0  0  0
  1  9  1  0  0  0  0
  1 10  1  0  0  0  0
  2  3  2  0  0  0  0
  2  4  1  0  0  0  0
  4  5  1  0  0  0  0
  4 16  1  0  0  0  0
  5  6  2  0  0  0  0
  5  7  1  0  0  0  0
  7  8  1  0  0  0  0
  7  9  2  0  0  0  0
  9 17  1  0  0  0  0
 10 11  1  0  0  0  0
 10 18  1  0  0  0  0
 10 19  1  0  0  0  0
 11 12  1  0  0  0  0
 11 13  1  0  0  0  0
 11 20  1  6  0  0  0
 12 21  1  0  0  0  0
 12 22  1  0  0  0  0
 12 23  1  0  0  0  0
 13 14  2  0  0  0  0
 13 15  1  0  0  0  0
M  CHG  3   1   1   4   1  12   1
M  END
$$$$
