CX4
 OpenBabel04091912583D

 28 30  0  0  0  0  0  0  0  0999 V2000
  -34.0147  -15.4352   -5.6550 C   0  0  0  0  0  0  0  0  0  0  0  0
  -34.9815  -16.5679   -5.8791 C   0  0  0  0  0  0  0  0  0  0  0  0
  -34.6276  -15.6454   -7.0182 C   0  0  0  0  0  0  0  0  0  0  0  0
  -33.7486  -16.1099   -8.1414 C   0  0  0  0  0  0  0  0  0  0  0  0
  -34.4880  -16.8984   -9.1082 N   0  0  0  0  0  0  0  0  0  0  0  0
  -35.1713  -16.2958  -10.1481 C   0  0  0  0  0  0  0  0  0  0  0  0
  -35.9661  -17.0585  -11.0262 C   0  0  0  0  0  0  0  0  0  0  0  0
  -36.2240  -18.4523  -10.8819 C   0  0  0  0  0  0  0  0  0  0  0  0
  -37.0335  -19.1231  -11.7966 C   0  0  0  0  0  0  0  0  0  0  0  0
  -37.5853  -18.4184  -12.8524 C   0  0  0  0  0  0  0  0  0  0  0  0
  -38.5930  -19.2351  -13.9858 Cl  0  0  0  0  0  0  0  0  0  0  0  0
  -37.3370  -17.0564  -13.0066 C   0  0  0  0  0  0  0  0  0  0  0  0
  -36.5323  -16.3653  -12.1003 C   0  0  0  0  0  0  0  0  0  0  0  0
  -36.3343  -15.0589  -12.3082 N   0  0  0  0  0  0  0  0  0  0  0  0
  -35.5602  -14.4318  -11.4186 C   0  0  0  0  0  0  0  0  0  0  0  0
  -34.9745  -14.9791  -10.3526 N   0  0  0  0  0  0  0  0  0  0  0  0
  -32.9643  -15.6676   -5.5289 H   0  0  0  0  0  0  0  0  0  0  0  0
  -34.3504  -14.5896   -5.0644 H   0  0  0  0  0  0  0  0  0  0  0  0
  -35.9676  -16.4809   -5.4384 H   0  0  0  0  0  0  0  0  0  0  0  0
  -34.5976  -17.5791   -5.9106 H   0  0  0  0  0  0  0  0  0  0  0  0
  -35.3734  -14.9262   -7.3480 H   0  0  0  0  0  0  0  0  0  0  0  0
  -32.9628  -16.7572   -7.7430 H   0  0  0  0  0  0  0  0  0  0  0  0
  -33.2335  -15.2635   -8.6028 H   0  0  0  0  0  0  0  0  0  0  0  0
  -34.7361  -17.8234   -8.8178 H   0  0  0  0  0  0  0  0  0  0  0  0
  -35.8056  -19.0246  -10.0671 H   0  0  0  0  0  0  0  0  0  0  0  0
  -37.2213  -20.1861  -11.6731 H   0  0  0  0  0  0  0  0  0  0  0  0
  -37.7731  -16.5133  -13.8353 H   0  0  0  0  0  0  0  0  0  0  0  0
  -35.3853  -13.3720  -11.5840 H   0  0  0  0  0  0  0  0  0  0  0  0
  1  2  1  0  0  0  0
  1  3  1  0  0  0  0
  1 17  1  0  0  0  0
  1 18  1  0  0  0  0
  2  3  1  0  0  0  0
  2 19  1  0  0  0  0
  2 20  1  0  0  0  0
  3  4  1  0  0  0  0
  3 21  1  0  0  0  0
  4  5  1  0  0  0  0
  4 22  1  0  0  0  0
  4 23  1  0  0  0  0
  5  6  1  0  0  0  0
  5 24  1  0  0  0  0
  6  7  2  0  0  0  0
  6 16  1  0  0  0  0
  7  8  1  0  0  0  0
  7 13  1  0  0  0  0
  8  9  2  0  0  0  0
  8 25  1  0  0  0  0
  9 10  1  0  0  0  0
  9 26  1  0  0  0  0
 10 11  1  0  0  0  0
 10 12  2  0  0  0  0
 12 13  1  0  0  0  0
 12 27  1  0  0  0  0
 13 14  2  0  0  0  0
 14 15  1  0  0  0  0
 15 16  2  0  0  0  0
 15 28  1  0  0  0  0
M  END
$$$$
