D78
 OpenBabel04091912443D

 82 85  0  0  1  0  0  0  0  0999 V2000
   18.5330   33.3126   13.6668 O   0  0  0  0  0  0  0  0  0  0  0  0
   17.9934   32.3723   14.6257 S   0  0  0  0  0  0  0  0  0  0  0  0
   17.1414   31.2851   14.2055 O   0  0  0  0  0  0  0  0  0  0  0  0
   17.1012   33.3110   15.8354 C   0  0  0  0  0  0  0  0  0  0  0  0
   17.3585   34.6786   15.9521 C   0  0  0  0  0  0  0  0  0  0  0  0
   16.6398   35.4473   16.8688 C   0  0  0  0  0  0  0  0  0  0  0  0
   15.6604   34.8498   17.6592 C   0  0  0  0  0  0  0  0  0  0  0  0
   14.8819   35.4883   18.5887 O   0  0  0  0  0  0  0  0  0  0  0  0
   15.1093   36.8780   18.8153 C   0  0  0  0  0  0  0  0  0  0  0  0
   15.4066   33.4772   17.5223 C   0  0  0  0  0  0  0  0  0  0  0  0
   16.1242   32.6996   16.6100 C   0  0  0  0  0  0  0  0  0  0  0  0
   19.2977   31.7511   15.5248 N   0  0  0  0  0  0  0  0  0  0  0  0
   20.0737   32.7372   16.2938 C   0  0  0  0  0  0  0  0  0  0  0  0
   21.5544   32.3760   16.3491 C   0  0  0  0  0  0  0  0  0  0  0  0
   22.1811   32.3330   14.9577 C   0  0  0  0  0  0  0  0  0  0  0  0
   22.2893   33.3914   17.2179 C   0  0  0  0  0  0  0  0  0  0  0  0
   19.0598   30.4669   16.2275 C   0  0  0  0  0  0  0  0  0  0  0  0
   19.8966   29.3305   15.6114 C   0  0  1  0  0  0  0  0  0  0  0  0
   19.8364   28.1893   16.4812 O   0  0  0  0  0  0  0  0  0  0  0  0
   19.4533   28.9812   14.1710 C   0  0  2  0  0  0  0  0  0  0  0  0
   18.1167   28.2205   14.0962 C   0  0  0  0  0  0  0  0  0  0  0  0
   17.7540   27.8803   12.6672 C   0  0  0  0  0  0  0  0  0  0  0  0
   17.9130   26.5736   12.1876 C   0  0  0  0  0  0  0  0  0  0  0  0
   17.6329   26.2735   10.8553 C   0  0  0  0  0  0  0  0  0  0  0  0
   17.1961   27.2751    9.9905 C   0  0  0  0  0  0  0  0  0  0  0  0
   17.0540   28.5804   10.4530 C   0  0  0  0  0  0  0  0  0  0  0  0
   17.3351   28.8825   11.7841 C   0  0  0  0  0  0  0  0  0  0  0  0
   20.4751   28.1705   13.5021 N   0  0  0  0  0  0  0  0  0  0  0  0
   21.1475   28.6347   12.3988 C   0  0  0  0  0  0  0  0  0  0  0  0
   21.1437   29.8075   12.0419 O   0  0  0  0  0  0  0  0  0  0  0  0
   21.8775   27.5727   11.5939 C   0  0  1  0  0  0  0  0  0  0  0  0
   21.8421   26.2566   12.1429 O   0  0  0  0  0  0  0  0  0  0  0  0
   21.5318   25.3700   11.1378 C   0  0  0  0  0  0  0  0  0  0  0  0
   21.5738   24.1656   11.3163 O   0  0  0  0  0  0  0  0  0  0  0  0
   21.2242   27.4733   10.2365 C   0  0  0  0  0  0  0  0  0  0  0  0
   21.1395   26.0632   10.0105 N   0  0  0  0  0  0  0  0  0  0  0  0
   20.7313   25.5185    8.7724 C   0  0  0  0  0  0  0  0  0  0  0  0
   21.1225   24.2373    8.3774 C   0  0  0  0  0  0  0  0  0  0  0  0
   20.7461   23.7210    7.1350 C   0  0  0  0  0  0  0  0  0  0  0  0
   19.9545   24.4737    6.2758 C   0  0  0  0  0  0  0  0  0  0  0  0
   19.9407   26.2727    7.8923 C   0  0  0  0  0  0  0  0  0  0  0  0
   19.5433   25.7575    6.6443 C   0  0  0  0  0  0  0  0  0  0  0  0
   18.6561   26.5587    5.7356 C   0  0  0  0  0  0  0  0  0  0  0  0
   17.3480   26.5021    6.0986 F   0  0  0  0  0  0  0  0  0  0  0  0
   18.7074   26.1431    4.4371 F   0  0  0  0  0  0  0  0  0  0  0  0
   18.9855   27.8896    5.7127 F   0  0  0  0  0  0  0  0  0  0  0  0
   18.1206   35.1487   15.3307 H   0  0  0  0  0  0  0  0  0  0  0  0
   16.8591   36.5050   16.9290 H   0  0  0  0  0  0  0  0  0  0  0  0
   14.4029   37.2040   19.5871 H   0  0  0  0  0  0  0  0  0  0  0  0
   14.9120   37.4745   17.9182 H   0  0  0  0  0  0  0  0  0  0  0  0
   16.1193   37.0651   19.1957 H   0  0  0  0  0  0  0  0  0  0  0  0
   14.6350   33.0053   18.1258 H   0  0  0  0  0  0  0  0  0  0  0  0
   15.9094   31.6383   16.5045 H   0  0  0  0  0  0  0  0  0  0  0  0
   19.6594   32.7879   17.3106 H   0  0  0  0  0  0  0  0  0  0  0  0
   19.9715   33.7333   15.8553 H   0  0  0  0  0  0  0  0  0  0  0  0
   21.6699   31.3921   16.8149 H   0  0  0  0  0  0  0  0  0  0  0  0
   23.2444   32.0837   15.0294 H   0  0  0  0  0  0  0  0  0  0  0  0
   22.0886   33.2984   14.4486 H   0  0  0  0  0  0  0  0  0  0  0  0
   21.7035   31.5734   14.3330 H   0  0  0  0  0  0  0  0  0  0  0  0
   21.8404   33.4411   18.2153 H   0  0  0  0  0  0  0  0  0  0  0  0
   22.2512   34.3931   16.7756 H   0  0  0  0  0  0  0  0  0  0  0  0
   23.3387   33.1053   17.3311 H   0  0  0  0  0  0  0  0  0  0  0  0
   18.0048   30.1866   16.2072 H   0  0  0  0  0  0  0  0  0  0  0  0
   19.3013   30.5676   17.2911 H   0  0  0  0  0  0  0  0  0  0  0  0
   20.9518   29.6262   15.5815 H   0  0  0  0  0  0  0  0  0  0  0  0
   18.9035   27.9488   16.6096 H   0  0  0  0  0  0  0  0  0  0  0  0
   19.3597   29.9205   13.6140 H   0  0  0  0  0  0  0  0  0  0  0  0
   17.3015   28.7911   14.5515 H   0  0  0  0  0  0  0  0  0  0  0  0
   18.1944   27.2897   14.6714 H   0  0  0  0  0  0  0  0  0  0  0  0
   18.2709   25.7836   12.8440 H   0  0  0  0  0  0  0  0  0  0  0  0
   17.7607   25.2573   10.4911 H   0  0  0  0  0  0  0  0  0  0  0  0
   16.9701   27.0397    8.9540 H   0  0  0  0  0  0  0  0  0  0  0  0
   16.7199   29.3665    9.7814 H   0  0  0  0  0  0  0  0  0  0  0  0
   17.2366   29.9105   12.1251 H   0  0  0  0  0  0  0  0  0  0  0  0
   20.4911   27.1731   13.6919 H   0  0  0  0  0  0  0  0  0  0  0  0
   22.9251   27.8825   11.5276 H   0  0  0  0  0  0  0  0  0  0  0  0
   21.8560   27.9306    9.4662 H   0  0  0  0  0  0  0  0  0  0  0  0
   20.2339   27.9378   10.1998 H   0  0  0  0  0  0  0  0  0  0  0  0
   21.7681   23.6315    9.0071 H   0  0  0  0  0  0  0  0  0  0  0  0
   21.0789   22.7309    6.8351 H   0  0  0  0  0  0  0  0  0  0  0  0
   19.6662   24.0651    5.3092 H   0  0  0  0  0  0  0  0  0  0  0  0
   19.5892   27.2641    8.1721 H   0  0  0  0  0  0  0  0  0  0  0  0
  1  2  2  0  0  0  0
  2  3  2  0  0  0  0
  2  4  1  0  0  0  0
  2 12  1  0  0  0  0
  4  5  2  0  0  0  0
  4 11  1  0  0  0  0
  5  6  1  0  0  0  0
  5 47  1  0  0  0  0
  6  7  2  0  0  0  0
  6 48  1  0  0  0  0
  7  8  1  0  0  0  0
  7 10  1  0  0  0  0
  8  9  1  0  0  0  0
  9 49  1  0  0  0  0
  9 50  1  0  0  0  0
  9 51  1  0  0  0  0
 10 11  2  0  0  0  0
 10 52  1  0  0  0  0
 11 53  1  0  0  0  0
 12 13  1  0  0  0  0
 12 17  1  0  0  0  0
 13 14  1  0  0  0  0
 13 54  1  0  0  0  0
 13 55  1  0  0  0  0
 14 15  1  0  0  0  0
 14 16  1  0  0  0  0
 14 56  1  0  0  0  0
 15 57  1  0  0  0  0
 15 58  1  0  0  0  0
 15 59  1  0  0  0  0
 16 60  1  0  0  0  0
 16 61  1  0  0  0  0
 16 62  1  0  0  0  0
 17 18  1  0  0  0  0
 17 63  1  0  0  0  0
 17 64  1  0  0  0  0
 18 19  1  0  0  0  0
 18 20  1  0  0  0  0
 18 65  1  6  0  0  0
 19 66  1  0  0  0  0
 20 21  1  0  0  0  0
 20 28  1  0  0  0  0
 20 67  1  6  0  0  0
 21 22  1  0  0  0  0
 21 68  1  0  0  0  0
 21 69  1  0  0  0  0
 22 23  2  0  0  0  0
 22 27  1  0  0  0  0
 23 24  1  0  0  0  0
 23 70  1  0  0  0  0
 24 25  2  0  0  0  0
 24 71  1  0  0  0  0
 25 26  1  0  0  0  0
 25 72  1  0  0  0  0
 26 27  2  0  0  0  0
 26 73  1  0  0  0  0
 27 74  1  0  0  0  0
 28 29  1  0  0  0  0
 28 75  1  0  0  0  0
 29 30  2  0  0  0  0
 29 31  1  0  0  0  0
 31 32  1  0  0  0  0
 31 35  1  0  0  0  0
 31 76  1  6  0  0  0
 32 33  1  0  0  0  0
 33 34  2  0  0  0  0
 33 36  1  0  0  0  0
 35 36  1  0  0  0  0
 35 77  1  0  0  0  0
 35 78  1  0  0  0  0
 36 37  1  0  0  0  0
 37 38  2  0  0  0  0
 37 41  1  0  0  0  0
 38 39  1  0  0  0  0
 38 79  1  0  0  0  0
 39 40  2  0  0  0  0
 39 80  1  0  0  0  0
 40 42  1  0  0  0  0
 40 81  1  0  0  0  0
 41 42  2  0  0  0  0
 41 82  1  0  0  0  0
 42 43  1  0  0  0  0
 43 44  1  0  0  0  0
 43 45  1  0  0  0  0
 43 46  1  0  0  0  0
M  END
$$$$
