D7K
 OpenBabel04091912373D

 65 67  0  0  1  0  0  0  0  0999 V2000
  107.8482   41.3381   99.2044 P   0  0  2  0  0  0  0  0  0  0  0  0
  107.8083   41.2793  100.7246 O   0  0  0  0  0  0  0  0  0  0  0  0
  106.5392   40.9589   98.5151 O   0  0  0  0  0  0  0  0  0  0  0  0
  111.1843   41.8346   98.0480 O   0  0  0  0  0  0  0  0  0  0  0  0
  110.6803   40.6617   98.8861 P   0  0  0  0  0  0  0  0  0  0  0  0
  110.8539   40.8616  100.3826 O   0  0  0  0  0  0  0  0  0  0  0  0
  111.2675   39.3262   98.4189 O   0  0  0  0  0  0  0  0  0  0  0  0
  109.0931   40.5643   98.5674 O   0  0  0  0  0  0  0  0  0  0  0  0
  108.1209   42.8991   98.8148 O   0  0  0  0  0  0  0  0  0  0  0  0
  107.6952   43.4469   97.5814 C   0  0  0  0  0  0  0  0  0  0  0  0
  108.5017   44.7332   97.3831 C   0  0  0  0  0  0  0  0  0  0  0  0
  108.3446   45.4767   96.0791 C   0  0  0  0  0  0  0  0  0  0  0  0
  107.7146   46.6491   95.8478 C   0  0  0  0  0  0  0  0  0  0  0  0
  106.8700   47.3607   96.8539 C   0  0  0  0  0  0  0  0  0  0  0  0
  109.1829   44.8546   94.7093 S   0  0  0  0  0  0  0  0  0  0  0  0
  108.5612   46.1186   93.5877 C   0  0  1  0  0  0  0  0  0  0  0  0
  107.6602   47.0235   94.4342 N   0  0  0  0  0  0  0  0  0  0  0  0
  107.0547   48.3304   94.0435 C   0  0  0  0  0  0  0  0  0  0  0  0
  105.5527   48.2300   93.7616 C   0  0  0  0  0  0  0  0  0  0  0  0
  104.6667   48.9154   94.5570 C   0  0  0  0  0  0  0  0  0  0  0  0
  104.9903   47.4946   92.7648 C   0  0  0  0  0  0  0  0  0  0  0  0
  105.7419   46.7358   91.9071 N   0  0  0  0  0  0  0  0  0  0  0  0
  103.6468   47.4106   92.5365 N   0  0  0  0  0  0  0  0  0  0  0  0
  102.8728   48.1343   93.4132 C   0  0  0  0  0  0  0  0  0  0  0  0
  103.3272   48.8682   94.3790 N   0  0  0  0  0  0  0  0  0  0  0  0
  101.3694   48.0693   93.1375 C   0  0  0  0  0  0  0  0  0  0  0  0
  110.1295   48.7895   93.0617 O   0  0  0  0  0  0  0  0  0  0  0  0
  110.6894   47.5736   92.3266 P   0  0  1  0  0  0  0  0  0  0  0  0
  111.3190   47.7330   90.9678 O   0  0  0  0  0  0  0  0  0  0  0  0
  111.6660   46.7532   93.3260 O   0  0  0  0  0  0  0  0  0  0  0  0
  113.0576   46.8135   93.1077 C   0  0  0  0  0  0  0  0  0  0  0  0
  109.2387   46.4353   92.2073 C   0  0  2  0  0  0  0  0  0  0  0  0
  108.2394   47.1034   91.3529 O   0  0  0  0  0  0  0  0  0  0  0  0
  109.5115   45.0765   91.5192 C   0  0  0  0  0  0  0  0  0  0  0  0
  108.6305   44.4963   90.5979 C   0  0  0  0  0  0  0  0  0  0  0  0
  108.9361   43.2724   90.0019 C   0  0  0  0  0  0  0  0  0  0  0  0
  110.1023   42.5962   90.3445 C   0  0  0  0  0  0  0  0  0  0  0  0
  110.9604   43.1379   91.2924 C   0  0  0  0  0  0  0  0  0  0  0  0
  110.6514   44.3485   91.8717 C   0  0  0  0  0  0  0  0  0  0  0  0
  106.6301   43.6952   97.6685 H   0  0  0  0  0  0  0  0  0  0  0  0
  107.8418   42.7534   96.7547 H   0  0  0  0  0  0  0  0  0  0  0  0
  109.5599   44.4879   97.5232 H   0  0  0  0  0  0  0  0  0  0  0  0
  108.2603   45.4071   98.2078 H   0  0  0  0  0  0  0  0  0  0  0  0
  106.8927   46.8709   97.8207 H   0  0  0  0  0  0  0  0  0  0  0  0
  105.8186   47.3908   96.5469 H   0  0  0  0  0  0  0  0  0  0  0  0
  107.2281   48.3792   96.9747 H   0  0  0  0  0  0  0  0  0  0  0  0
  107.7357   45.5321   93.1729 H   0  0  0  0  0  0  0  0  0  0  0  0
  107.5476   48.7288   93.1611 H   0  0  0  0  0  0  0  0  0  0  0  0
  107.2387   49.0565   94.8441 H   0  0  0  0  0  0  0  0  0  0  0  0
  105.0269   49.5282   95.3717 H   0  0  0  0  0  0  0  0  0  0  0  0
  105.3425   46.2625   91.1210 H   0  0  0  0  0  0  0  0  0  0  0  0
  106.7489   46.7283   91.9212 H   0  0  0  0  0  0  0  0  0  0  0  0
  101.1377   47.4326   92.3020 H   0  0  0  0  0  0  0  0  0  0  0  0
  101.0023   49.0789   92.9226 H   0  0  0  0  0  0  0  0  0  0  0  0
  100.8573   47.6951   94.0262 H   0  0  0  0  0  0  0  0  0  0  0  0
  113.5495   46.1644   93.8384 H   0  0  0  0  0  0  0  0  0  0  0  0
  113.3908   47.8375   93.2569 H   0  0  0  0  0  0  0  0  0  0  0  0
  113.3379   46.4665   92.1074 H   0  0  0  0  0  0  0  0  0  0  0  0
  108.2840   48.0526   91.6263 H   0  0  0  0  0  0  0  0  0  0  0  0
  107.7190   45.0118   90.3039 H   0  0  0  0  0  0  0  0  0  0  0  0
  108.2654   42.8532   89.2597 H   0  0  0  0  0  0  0  0  0  0  0  0
  110.3461   41.6456   89.8878 H   0  0  0  0  0  0  0  0  0  0  0  0
  111.8695   42.6181   91.5814 H   0  0  0  0  0  0  0  0  0  0  0  0
  111.3325   44.7111   92.6383 H   0  0  0  0  0  0  0  0  0  0  0  0
  106.8225   46.4872   94.2211 H   0  0  0  0  0  0  0  0  0  0  0  0
  1  2  2  1  0  0  0
  1  3  1  0  0  0  0
  1  8  1  0  0  0  0
  1  9  1  0  0  0  0
  4  5  2  0  0  0  0
  5  6  1  0  0  0  0
  5  7  1  0  0  0  0
  5  8  1  0  0  0  0
  9 10  1  0  0  0  0
 10 11  1  0  0  0  0
 10 40  1  0  0  0  0
 10 41  1  0  0  0  0
 11 12  1  0  0  0  0
 11 42  1  0  0  0  0
 11 43  1  0  0  0  0
 12 13  2  0  0  0  0
 12 15  1  0  0  0  0
 13 14  1  0  0  0  0
 13 17  1  0  0  0  0
 14 44  1  0  0  0  0
 14 45  1  0  0  0  0
 14 46  1  0  0  0  0
 15 16  1  0  0  0  0
 16 17  1  0  0  0  0
 16 32  1  0  0  0  0
 16 47  1  6  0  0  0
 17 18  1  0  0  0  0
 17 65  1  0  0  0  0
 18 19  1  0  0  0  0
 18 48  1  0  0  0  0
 18 49  1  0  0  0  0
 19 20  2  0  0  0  0
 19 21  1  0  0  0  0
 20 25  1  0  0  0  0
 20 50  1  0  0  0  0
 21 22  1  0  0  0  0
 21 23  2  0  0  0  0
 22 51  1  0  0  0  0
 22 52  1  0  0  0  0
 23 24  1  0  0  0  0
 24 25  2  0  0  0  0
 24 26  1  0  0  0  0
 26 53  1  0  0  0  0
 26 54  1  0  0  0  0
 26 55  1  0  0  0  0
 28 27  2  1  0  0  0
 28 29  1  0  0  0  0
 28 30  1  0  0  0  0
 28 32  1  0  0  0  0
 30 31  1  0  0  0  0
 31 56  1  0  0  0  0
 31 57  1  0  0  0  0
 31 58  1  0  0  0  0
 32 33  1  6  0  0  0
 32 34  1  0  0  0  0
 33 59  1  0  0  0  0
 34 35  2  0  0  0  0
 34 39  1  0  0  0  0
 35 36  1  0  0  0  0
 35 60  1  0  0  0  0
 36 37  2  0  0  0  0
 36 61  1  0  0  0  0
 37 38  1  0  0  0  0
 37 62  1  0  0  0  0
 38 39  2  0  0  0  0
 38 63  1  0  0  0  0
 39 64  1  0  0  0  0
M  END
$$$$
