D7K
 OpenBabel04091911243D

 65 67  0  0  1  0  0  0  0  0999 V2000
  -42.2700   27.4836    2.3778 P   0  0  2  0  0  0  0  0  0  0  0  0
  -42.5360   27.9939    0.9700 O   0  0  0  0  0  0  0  0  0  0  0  0
  -43.5177   27.1043    3.1791 O   0  0  0  0  0  0  0  0  0  0  0  0
  -39.8045   30.1553    4.1780 O   0  0  0  0  0  0  0  0  0  0  0  0
  -39.7875   28.8619    3.3557 P   0  0  0  0  0  0  0  0  0  0  0  0
  -39.2585   29.0722    1.9434 O   0  0  0  0  0  0  0  0  0  0  0  0
  -39.0936   27.7212    4.1028 O   0  0  0  0  0  0  0  0  0  0  0  0
  -41.3433   28.4434    3.2533 O   0  0  0  0  0  0  0  0  0  0  0  0
  -41.4184   26.0990    2.2418 O   0  0  0  0  0  0  0  0  0  0  0  0
  -41.2572   25.3188    3.4076 C   0  0  0  0  0  0  0  0  0  0  0  0
  -40.2700   24.2026    3.0650 C   0  0  0  0  0  0  0  0  0  0  0  0
  -40.2884   23.0066    3.9899 C   0  0  0  0  0  0  0  0  0  0  0  0
  -40.7579   21.7597    3.7648 C   0  0  0  0  0  0  0  0  0  0  0  0
  -41.4281   21.3247    2.4936 C   0  0  0  0  0  0  0  0  0  0  0  0
  -39.4655   23.1466    5.5065 S   0  0  0  0  0  0  0  0  0  0  0  0
  -40.2028   21.6072    6.1304 C   0  0  1  0  0  0  0  0  0  0  0  0
  -40.4086   20.8172    4.8417 N   0  0  0  0  0  0  0  0  0  0  0  0
  -41.1814   19.5328    4.9003 C   0  0  0  0  0  0  0  0  0  0  0  0
  -42.6736   19.4758    4.9884 C   0  0  0  0  0  0  0  0  0  0  0  0
  -43.3891   18.8565    3.9760 C   0  0  0  0  0  0  0  0  0  0  0  0
  -43.4326   19.8386    6.0832 C   0  0  0  0  0  0  0  0  0  0  0  0
  -42.9027   20.4458    7.2058 N   0  0  0  0  0  0  0  0  0  0  0  0
  -44.7623   19.6734    6.1333 N   0  0  0  0  0  0  0  0  0  0  0  0
  -45.3616   19.1166    5.0703 C   0  0  0  0  0  0  0  0  0  0  0  0
  -44.7191   18.6643    3.9853 N   0  0  0  0  0  0  0  0  0  0  0  0
  -46.8514   19.0015    5.0936 C   0  0  0  0  0  0  0  0  0  0  0  0
  -38.6326   18.6896    6.0707 O   0  0  0  0  0  0  0  0  0  0  0  0
  -37.9872   19.8713    6.7768 P   0  0  2  0  0  0  0  0  0  0  0  0
  -36.9785   20.7083    6.0533 O   0  0  0  0  0  0  0  0  0  0  0  0
  -37.4175   19.3122    8.1938 O   0  0  0  0  0  0  0  0  0  0  0  0
  -36.3323   19.9718    8.8150 C   0  0  0  0  0  0  0  0  0  0  0  0
  -39.4870   20.8740    7.3323 C   0  0  2  0  0  0  0  0  0  0  0  0
  -40.3823   19.8044    7.8380 O   0  0  0  0  0  0  0  0  0  0  0  0
  -39.2655   21.8576    8.4731 C   0  0  0  0  0  0  0  0  0  0  0  0
  -40.1747   21.9854    9.5319 C   0  0  0  0  0  0  0  0  0  0  0  0
  -40.0035   22.9765   10.4962 C   0  0  0  0  0  0  0  0  0  0  0  0
  -38.9216   23.8554   10.4136 C   0  0  0  0  0  0  0  0  0  0  0  0
  -38.0112   23.7406    9.3675 C   0  0  0  0  0  0  0  0  0  0  0  0
  -38.1844   22.7453    8.4156 C   0  0  0  0  0  0  0  0  0  0  0  0
  -42.2302   24.8930    3.6767 H   0  0  0  0  0  0  0  0  0  0  0  0
  -40.9014   25.9225    4.2463 H   0  0  0  0  0  0  0  0  0  0  0  0
  -39.2576   24.6273    3.0403 H   0  0  0  0  0  0  0  0  0  0  0  0
  -40.4395   23.8842    2.0309 H   0  0  0  0  0  0  0  0  0  0  0  0
  -41.3851   22.0734    1.7008 H   0  0  0  0  0  0  0  0  0  0  0  0
  -42.4883   21.1195    2.6639 H   0  0  0  0  0  0  0  0  0  0  0  0
  -40.9507   20.4211    2.1011 H   0  0  0  0  0  0  0  0  0  0  0  0
  -41.2025   21.9039    6.4561 H   0  0  0  0  0  0  0  0  0  0  0  0
  -40.8161   18.9359    5.7298 H   0  0  0  0  0  0  0  0  0  0  0  0
  -40.8470   18.9711    4.0171 H   0  0  0  0  0  0  0  0  0  0  0  0
  -42.8955   18.4720    3.0859 H   0  0  0  0  0  0  0  0  0  0  0  0
  -43.6409   20.5928    7.8883 H   0  0  0  0  0  0  0  0  0  0  0  0
  -42.0884   19.9878    7.6205 H   0  0  0  0  0  0  0  0  0  0  0  0
  -47.2601   19.4134    6.0213 H   0  0  0  0  0  0  0  0  0  0  0  0
  -47.1490   17.9521    5.0173 H   0  0  0  0  0  0  0  0  0  0  0  0
  -47.2745   19.5564    4.2517 H   0  0  0  0  0  0  0  0  0  0  0  0
  -36.0984   19.4503    9.7478 H   0  0  0  0  0  0  0  0  0  0  0  0
  -36.5718   21.0000    9.0734 H   0  0  0  0  0  0  0  0  0  0  0  0
  -35.4487   19.9568    8.1739 H   0  0  0  0  0  0  0  0  0  0  0  0
  -39.9006   18.9738    7.5958 H   0  0  0  0  0  0  0  0  0  0  0  0
  -41.0460   21.3390    9.5977 H   0  0  0  0  0  0  0  0  0  0  0  0
  -40.7289   23.0886   11.2943 H   0  0  0  0  0  0  0  0  0  0  0  0
  -38.8111   24.6564   11.1347 H   0  0  0  0  0  0  0  0  0  0  0  0
  -37.1883   24.4475    9.2693 H   0  0  0  0  0  0  0  0  0  0  0  0
  -37.4593   22.7081    7.5906 H   0  0  0  0  0  0  0  0  0  0  0  0
  -39.4367   20.5108    4.6460 H   0  0  0  0  0  0  0  0  0  0  0  0
  1  2  2  6  0  0  0
  1  3  1  0  0  0  0
  1  8  1  0  0  0  0
  1  9  1  0  0  0  0
  4  5  2  0  0  0  0
  5  6  1  0  0  0  0
  5  7  1  0  0  0  0
  5  8  1  0  0  0  0
  9 10  1  0  0  0  0
 10 11  1  0  0  0  0
 10 40  1  0  0  0  0
 10 41  1  0  0  0  0
 11 12  1  0  0  0  0
 11 42  1  0  0  0  0
 11 43  1  0  0  0  0
 12 13  2  0  0  0  0
 12 15  1  0  0  0  0
 13 14  1  0  0  0  0
 13 17  1  0  0  0  0
 14 44  1  0  0  0  0
 14 45  1  0  0  0  0
 14 46  1  0  0  0  0
 15 16  1  0  0  0  0
 16 17  1  0  0  0  0
 16 32  1  0  0  0  0
 16 47  1  1  0  0  0
 17 18  1  0  0  0  0
 17 65  1  0  0  0  0
 18 19  1  0  0  0  0
 18 48  1  0  0  0  0
 18 49  1  0  0  0  0
 19 20  2  0  0  0  0
 19 21  1  0  0  0  0
 20 25  1  0  0  0  0
 20 50  1  0  0  0  0
 21 22  1  0  0  0  0
 21 23  2  0  0  0  0
 22 51  1  0  0  0  0
 22 52  1  0  0  0  0
 23 24  1  0  0  0  0
 24 25  2  0  0  0  0
 24 26  1  0  0  0  0
 26 53  1  0  0  0  0
 26 54  1  0  0  0  0
 26 55  1  0  0  0  0
 28 27  2  6  0  0  0
 28 29  1  0  0  0  0
 28 30  1  0  0  0  0
 28 32  1  0  0  0  0
 30 31  1  0  0  0  0
 31 56  1  0  0  0  0
 31 57  1  0  0  0  0
 31 58  1  0  0  0  0
 32 33  1  1  0  0  0
 32 34  1  0  0  0  0
 33 59  1  0  0  0  0
 34 35  2  0  0  0  0
 34 39  1  0  0  0  0
 35 36  1  0  0  0  0
 35 60  1  0  0  0  0
 36 37  2  0  0  0  0
 36 61  1  0  0  0  0
 37 38  1  0  0  0  0
 37 62  1  0  0  0  0
 38 39  2  0  0  0  0
 38 63  1  0  0  0  0
 39 64  1  0  0  0  0
M  END
$$$$
