D8W
 OpenBabel04091911263D

 27 28  0  0  0  0  0  0  0  0999 V2000
   -3.7070    7.3302   14.9156 C   0  0  0  0  0  0  0  0  0  0  0  0
   -2.6482    8.1613   15.2712 C   0  0  0  0  0  0  0  0  0  0  0  0
   -1.8291    8.7101   14.2816 C   0  0  0  0  0  0  0  0  0  0  0  0
   -2.0572    8.4249   12.9338 C   0  0  0  0  0  0  0  0  0  0  0  0
   -3.1134    7.5975   12.5672 C   0  0  0  0  0  0  0  0  0  0  0  0
   -3.9368    7.0541   13.5620 C   0  0  0  0  0  0  0  0  0  0  0  0
   -5.3434    6.0890   13.0990 S   0  0  0  0  0  0  0  0  0  0  0  0
   -6.3103    6.1501   14.1639 O   0  0  0  0  0  0  0  0  0  0  0  0
   -5.7118    6.4906   11.7531 O   0  0  0  0  0  0  0  0  0  0  0  0
   -4.6409    4.5830   12.9444 N   0  0  0  0  0  0  0  0  0  0  0  0
   -4.6627    3.6451   13.9823 C   0  0  0  0  0  0  0  0  0  0  0  0
   -5.8589    3.4669   15.1896 S   0  0  0  0  0  0  0  0  0  0  0  0
   -3.7436    2.7032   13.9934 N   0  0  0  0  0  0  0  0  0  0  0  0
   -3.9726    1.7590   14.9782 N   0  0  0  0  0  0  0  0  0  0  0  0
   -5.0814    2.0362   15.6353 C   0  0  0  0  0  0  0  0  0  0  0  0
   -5.8704    0.9658   16.7849 S   0  0  0  0  0  0  0  0  0  0  0  0
   -5.1838    1.1408   18.0464 O   0  0  0  0  0  0  0  0  0  0  0  0
   -7.3002    1.1659   16.6526 O   0  0  0  0  0  0  0  0  0  0  0  0
   -5.5921   -0.5899   16.2489 N   0  0  0  0  0  0  0  0  0  0  0  0
   -4.3539    6.9225   15.6878 H   0  0  0  0  0  0  0  0  0  0  0  0
   -2.4689    8.3969   16.3185 H   0  0  0  0  0  0  0  0  0  0  0  0
   -1.0141    9.3757   14.5630 H   0  0  0  0  0  0  0  0  0  0  0  0
   -1.4212    8.8645   12.1693 H   0  0  0  0  0  0  0  0  0  0  0  0
   -3.3030    7.3922   11.5173 H   0  0  0  0  0  0  0  0  0  0  0  0
   -3.9873    4.4350   12.1864 H   0  0  0  0  0  0  0  0  0  0  0  0
   -5.8570   -1.3415   16.8753 H   0  0  0  0  0  0  0  0  0  0  0  0
   -4.8391   -0.7231   15.5638 H   0  0  0  0  0  0  0  0  0  0  0  0
  1  2  2  0  0  0  0
  1  6  1  0  0  0  0
  1 20  1  0  0  0  0
  2  3  1  0  0  0  0
  2 21  1  0  0  0  0
  3  4  2  0  0  0  0
  3 22  1  0  0  0  0
  4  5  1  0  0  0  0
  4 23  1  0  0  0  0
  5  6  2  0  0  0  0
  5 24  1  0  0  0  0
  6  7  1  0  0  0  0
  7  8  2  0  0  0  0
  7  9  2  0  0  0  0
  7 10  1  0  0  0  0
 10 11  1  0  0  0  0
 10 25  1  0  0  0  0
 11 12  1  0  0  0  0
 11 13  2  0  0  0  0
 12 15  1  0  0  0  0
 13 14  1  0  0  0  0
 14 15  2  0  0  0  0
 15 16  1  0  0  0  0
 16 17  2  0  0  0  0
 16 18  2  0  0  0  0
 16 19  1  0  0  0  0
 19 26  1  0  0  0  0
 19 27  1  0  0  0  0
M  END
$$$$
