D9H
 OpenBabel04091913503D

 35 36  0  0  0  0  0  0  0  0999 V2000
   -5.2999    2.0631   15.7999 C   0  0  0  0  0  0  0  0  0  0  0  0
   -5.4358   -0.6152   16.0425 N   0  0  0  0  0  0  0  0  0  0  0  0
   -7.4094    0.7676   16.6598 O   0  0  0  0  0  0  0  0  0  0  0  0
   -5.9728    0.7613   16.7985 S   0  0  0  0  0  0  0  0  0  0  0  0
   -6.1278    3.1028   15.3788 C   0  0  0  0  0  0  0  0  0  0  0  0
   -5.3186    0.8237   18.0870 O   0  0  0  0  0  0  0  0  0  0  0  0
   -5.5911    4.1409   14.6116 C   0  0  0  0  0  0  0  0  0  0  0  0
   -4.2354    4.1638   14.2610 C   0  0  0  0  0  0  0  0  0  0  0  0
   -3.4297    3.0900   14.6790 C   0  0  0  0  0  0  0  0  0  0  0  0
   -3.9501    2.0472   15.4502 C   0  0  0  0  0  0  0  0  0  0  0  0
   -3.6635    5.1493   13.4508 N   0  0  0  0  0  0  0  0  0  0  0  0
   -4.1995    6.1882   12.6931 C   0  0  0  0  0  0  0  0  0  0  0  0
   -3.3001    7.0031   12.1513 N   0  0  0  0  0  0  0  0  0  0  0  0
   -3.7552    8.0181   11.4241 C   0  0  0  0  0  0  0  0  0  0  0  0
   -2.8673    8.9293   10.9007 N   0  0  0  0  0  0  0  0  0  0  0  0
   -5.0322    8.2354   11.1839 N   0  0  0  0  0  0  0  0  0  0  0  0
   -5.8322    7.3565   11.7677 C   0  0  0  0  0  0  0  0  0  0  0  0
   -7.5116    7.5868   11.5284 Cl  0  0  0  0  0  0  0  0  0  0  0  0
   -5.4991    6.3219   12.5211 N   0  0  0  0  0  0  0  0  0  0  0  0
   -1.4678    8.5712   10.7643 C   0  0  0  0  0  0  0  0  0  0  0  0
   -1.1816    7.7488    9.5021 C   0  0  0  0  0  0  0  0  0  0  0  0
    0.1799    7.3204    9.5102 O   0  0  0  0  0  0  0  0  0  0  0  0
   -5.6437   -1.4925   16.5072 H   0  0  0  0  0  0  0  0  0  0  0  0
   -4.9575   -0.5779   15.1511 H   0  0  0  0  0  0  0  0  0  0  0  0
   -7.1803    3.1250   15.6482 H   0  0  0  0  0  0  0  0  0  0  0  0
   -6.2596    4.9457   14.3194 H   0  0  0  0  0  0  0  0  0  0  0  0
   -2.3767    3.0610   14.4041 H   0  0  0  0  0  0  0  0  0  0  0  0
   -3.2965    1.2425   15.7793 H   0  0  0  0  0  0  0  0  0  0  0  0
   -2.6566    5.2343   13.4794 H   0  0  0  0  0  0  0  0  0  0  0  0
   -3.2933    9.5299   10.2073 H   0  0  0  0  0  0  0  0  0  0  0  0
   -1.0910    8.0465   11.6507 H   0  0  0  0  0  0  0  0  0  0  0  0
   -0.8779    9.4951   10.7192 H   0  0  0  0  0  0  0  0  0  0  0  0
   -1.3445    8.3559    8.6067 H   0  0  0  0  0  0  0  0  0  0  0  0
   -1.8202    6.8645    9.4468 H   0  0  0  0  0  0  0  0  0  0  0  0
    0.3143    6.7776    8.7145 H   0  0  0  0  0  0  0  0  0  0  0  0
  1  4  1  0  0  0  0
  1  5  2  0  0  0  0
  1 10  1  0  0  0  0
  2  4  1  0  0  0  0
  2 23  1  0  0  0  0
  2 24  1  0  0  0  0
  3  4  2  0  0  0  0
  4  6  2  0  0  0  0
  5  7  1  0  0  0  0
  5 25  1  0  0  0  0
  7  8  2  0  0  0  0
  7 26  1  0  0  0  0
  8  9  1  0  0  0  0
  8 11  1  0  0  0  0
  9 10  2  0  0  0  0
  9 27  1  0  0  0  0
 10 28  1  0  0  0  0
 11 12  1  0  0  0  0
 11 29  1  0  0  0  0
 12 13  2  0  0  0  0
 12 19  1  0  0  0  0
 13 14  1  0  0  0  0
 14 15  1  0  0  0  0
 14 16  2  0  0  0  0
 15 20  1  0  0  0  0
 15 30  1  0  0  0  0
 16 17  1  0  0  0  0
 17 18  1  0  0  0  0
 17 19  2  0  0  0  0
 20 21  1  0  0  0  0
 20 31  1  0  0  0  0
 20 32  1  0  0  0  0
 21 22  1  0  0  0  0
 21 33  1  0  0  0  0
 21 34  1  0  0  0  0
 22 35  1  0  0  0  0
M  END
$$$$
