DAO
 OpenBabel04091915583D

 37 36  0  0  0  0  0  0  0  0999 V2000
  -33.8605  -19.5780  -40.1814 O   0  0  0  0  0  0  0  0  0  0  0  0
  -34.1560  -17.4782  -40.9699 O   0  0  0  0  0  0  0  0  0  0  0  0
  -34.4952  -18.6856  -40.7586 C   0  0  0  0  0  0  0  0  0  0  0  0
  -35.8831  -19.0175  -41.3244 C   0  0  0  0  0  0  0  0  0  0  0  0
  -36.4264  -20.3902  -41.0069 C   0  0  0  0  0  0  0  0  0  0  0  0
  -36.3879  -21.2312  -42.2768 C   0  0  0  0  0  0  0  0  0  0  0  0
  -35.1903  -22.1681  -42.2654 C   0  0  0  0  0  0  0  0  0  0  0  0
  -35.5368  -23.5628  -42.7577 C   0  0  0  0  0  0  0  0  0  0  0  0
  -35.9797  -24.4395  -41.5856 C   0  0  0  0  0  0  0  0  0  0  0  0
  -37.3941  -24.9680  -41.7967 C   0  0  0  0  0  0  0  0  0  0  0  0
  -38.4622  -24.0648  -41.1890 C   0  0  0  0  0  0  0  0  0  0  0  0
  -39.8487  -24.3933  -41.7342 C   0  0  0  0  0  0  0  0  0  0  0  0
  -40.9597  -23.3752  -41.4644 C   0  0  0  0  0  0  0  0  0  0  0  0
  -40.7523  -22.4644  -40.2714 C   0  0  0  0  0  0  0  0  0  0  0  0
  -35.8321  -18.8897  -42.4122 H   0  0  0  0  0  0  0  0  0  0  0  0
  -36.6097  -18.2763  -40.9631 H   0  0  0  0  0  0  0  0  0  0  0  0
  -37.4590  -20.3153  -40.6385 H   0  0  0  0  0  0  0  0  0  0  0  0
  -35.8425  -20.8639  -40.2035 H   0  0  0  0  0  0  0  0  0  0  0  0
  -36.3397  -20.5985  -43.1656 H   0  0  0  0  0  0  0  0  0  0  0  0
  -37.3224  -21.7802  -42.3807 H   0  0  0  0  0  0  0  0  0  0  0  0
  -34.7850  -22.2428  -41.2513 H   0  0  0  0  0  0  0  0  0  0  0  0
  -34.4051  -21.7419  -42.8986 H   0  0  0  0  0  0  0  0  0  0  0  0
  -34.6518  -24.0084  -43.2285 H   0  0  0  0  0  0  0  0  0  0  0  0
  -36.3245  -23.5064  -43.5220 H   0  0  0  0  0  0  0  0  0  0  0  0
  -35.9354  -23.8751  -40.6431 H   0  0  0  0  0  0  0  0  0  0  0  0
  -35.2845  -25.2845  -41.4951 H   0  0  0  0  0  0  0  0  0  0  0  0
  -37.4728  -25.9602  -41.3384 H   0  0  0  0  0  0  0  0  0  0  0  0
  -37.5775  -25.0802  -42.8731 H   0  0  0  0  0  0  0  0  0  0  0  0
  -38.2361  -23.0249  -41.4114 H   0  0  0  0  0  0  0  0  0  0  0  0
  -38.4535  -24.1729  -40.0996 H   0  0  0  0  0  0  0  0  0  0  0  0
  -40.1533  -25.3558  -41.3094 H   0  0  0  0  0  0  0  0  0  0  0  0
  -39.7766  -24.5199  -42.8196 H   0  0  0  0  0  0  0  0  0  0  0  0
  -41.8985  -23.9218  -41.3204 H   0  0  0  0  0  0  0  0  0  0  0  0
  -41.0818  -22.7474  -42.3552 H   0  0  0  0  0  0  0  0  0  0  0  0
  -41.6004  -21.7814  -40.1678 H   0  0  0  0  0  0  0  0  0  0  0  0
  -39.8491  -21.8614  -40.3997 H   0  0  0  0  0  0  0  0  0  0  0  0
  -40.6627  -23.0520  -39.3527 H   0  0  0  0  0  0  0  0  0  0  0  0
  1  3  2  0  0  0  0
  2  3  1  0  0  0  0
  3  4  1  0  0  0  0
  4  5  1  0  0  0  0
  4 15  1  0  0  0  0
  4 16  1  0  0  0  0
  5  6  1  0  0  0  0
  5 17  1  0  0  0  0
  5 18  1  0  0  0  0
  6  7  1  0  0  0  0
  6 19  1  0  0  0  0
  6 20  1  0  0  0  0
  7  8  1  0  0  0  0
  7 21  1  0  0  0  0
  7 22  1  0  0  0  0
  8  9  1  0  0  0  0
  8 23  1  0  0  0  0
  8 24  1  0  0  0  0
  9 10  1  0  0  0  0
  9 25  1  0  0  0  0
  9 26  1  0  0  0  0
 10 11  1  0  0  0  0
 10 27  1  0  0  0  0
 10 28  1  0  0  0  0
 11 12  1  0  0  0  0
 11 29  1  0  0  0  0
 11 30  1  0  0  0  0
 12 13  1  0  0  0  0
 12 31  1  0  0  0  0
 12 32  1  0  0  0  0
 13 14  1  0  0  0  0
 13 33  1  0  0  0  0
 13 34  1  0  0  0  0
 14 35  1  0  0  0  0
 14 36  1  0  0  0  0
 14 37  1  0  0  0  0
M  END
$$$$
