DAO
 OpenBabel04091915563D

 37 36  0  0  0  0  0  0  0  0999 V2000
   -1.3628    3.8089   19.1850 O   0  0  0  0  0  0  0  0  0  0  0  0
   -0.2339    5.7533   19.5460 O   0  0  0  0  0  0  0  0  0  0  0  0
   -1.2522    5.0753   19.2818 C   0  0  0  0  0  0  0  0  0  0  0  0
   -2.5507    5.8511   19.0073 C   0  0  0  0  0  0  0  0  0  0  0  0
   -2.6307    7.2147   19.6941 C   0  0  0  0  0  0  0  0  0  0  0  0
   -3.2888    8.2896   18.8177 C   0  0  0  0  0  0  0  0  0  0  0  0
   -2.5582    9.6258   18.9511 C   0  0  0  0  0  0  0  0  0  0  0  0
   -3.2964   10.7776   18.2723 C   0  0  0  0  0  0  0  0  0  0  0  0
   -2.6467   12.1025   18.6629 C   0  0  0  0  0  0  0  0  0  0  0  0
   -3.3559   13.3082   18.0505 C   0  0  0  0  0  0  0  0  0  0  0  0
   -2.3631   14.4260   17.7426 C   0  0  0  0  0  0  0  0  0  0  0  0
   -2.9886   15.8144   17.8333 C   0  0  0  0  0  0  0  0  0  0  0  0
   -3.5586   16.2622   16.4939 C   0  0  0  0  0  0  0  0  0  0  0  0
   -3.7516   17.7660   16.4811 C   0  0  0  0  0  0  0  0  0  0  0  0
   -3.4137    5.2422   19.3072 H   0  0  0  0  0  0  0  0  0  0  0  0
   -2.6096    5.9698   17.9216 H   0  0  0  0  0  0  0  0  0  0  0  0
   -1.6361    7.5555   20.0014 H   0  0  0  0  0  0  0  0  0  0  0  0
   -3.2101    7.1090   20.6205 H   0  0  0  0  0  0  0  0  0  0  0  0
   -4.3353    8.4102   19.1228 H   0  0  0  0  0  0  0  0  0  0  0  0
   -3.2862    7.9953   17.7641 H   0  0  0  0  0  0  0  0  0  0  0  0
   -1.5590    9.5339   18.5042 H   0  0  0  0  0  0  0  0  0  0  0  0
   -2.4214    9.8621   20.0127 H   0  0  0  0  0  0  0  0  0  0  0  0
   -4.3513   10.7806   18.5669 H   0  0  0  0  0  0  0  0  0  0  0  0
   -3.2543   10.6553   17.1833 H   0  0  0  0  0  0  0  0  0  0  0  0
   -1.5912   12.0847   18.3632 H   0  0  0  0  0  0  0  0  0  0  0  0
   -2.6650   12.2086   19.7564 H   0  0  0  0  0  0  0  0  0  0  0  0
   -4.1199   13.6576   18.7560 H   0  0  0  0  0  0  0  0  0  0  0  0
   -3.8706   13.0240   17.1254 H   0  0  0  0  0  0  0  0  0  0  0  0
   -1.9456   14.2619   16.7403 H   0  0  0  0  0  0  0  0  0  0  0  0
   -1.5200   14.3863   18.4429 H   0  0  0  0  0  0  0  0  0  0  0  0
   -2.2155   16.5217   18.1544 H   0  0  0  0  0  0  0  0  0  0  0  0
   -3.7754   15.8429   18.5968 H   0  0  0  0  0  0  0  0  0  0  0  0
   -4.5164   15.7617   16.3129 H   0  0  0  0  0  0  0  0  0  0  0  0
   -2.8794   15.9898   15.6781 H   0  0  0  0  0  0  0  0  0  0  0  0
   -4.1564   18.0856   15.5174 H   0  0  0  0  0  0  0  0  0  0  0  0
   -2.7952   18.2752   16.6370 H   0  0  0  0  0  0  0  0  0  0  0  0
   -4.4403   18.0728   17.2732 H   0  0  0  0  0  0  0  0  0  0  0  0
  1  3  2  0  0  0  0
  2  3  1  0  0  0  0
  3  4  1  0  0  0  0
  4  5  1  0  0  0  0
  4 15  1  0  0  0  0
  4 16  1  0  0  0  0
  5  6  1  0  0  0  0
  5 17  1  0  0  0  0
  5 18  1  0  0  0  0
  6  7  1  0  0  0  0
  6 19  1  0  0  0  0
  6 20  1  0  0  0  0
  7  8  1  0  0  0  0
  7 21  1  0  0  0  0
  7 22  1  0  0  0  0
  8  9  1  0  0  0  0
  8 23  1  0  0  0  0
  8 24  1  0  0  0  0
  9 10  1  0  0  0  0
  9 25  1  0  0  0  0
  9 26  1  0  0  0  0
 10 11  1  0  0  0  0
 10 27  1  0  0  0  0
 10 28  1  0  0  0  0
 11 12  1  0  0  0  0
 11 29  1  0  0  0  0
 11 30  1  0  0  0  0
 12 13  1  0  0  0  0
 12 31  1  0  0  0  0
 12 32  1  0  0  0  0
 13 14  1  0  0  0  0
 13 33  1  0  0  0  0
 13 34  1  0  0  0  0
 14 35  1  0  0  0  0
 14 36  1  0  0  0  0
 14 37  1  0  0  0  0
M  END
$$$$
