DBH
 OpenBabel04091915443D

 16 16  0  0  0  0  0  0  0  0999 V2000
   28.5272   82.0380   62.9663 C   0  0  0  0  0  0  0  0  0  0  0  0
   29.7838   81.8727   63.0608 O   0  0  0  0  0  0  0  0  0  0  0  0
   27.6933   80.8501   62.5583 C   0  0  0  0  0  0  0  0  0  0  0  0
   26.8382   80.9739   61.4453 C   0  0  0  0  0  0  0  0  0  0  0  0
   26.0356   79.9063   61.0378 C   0  0  0  0  0  0  0  0  0  0  0  0
   27.7278   79.6330   63.2553 C   0  0  0  0  0  0  0  0  0  0  0  0
   28.5249   79.5470   64.3568 O   0  0  0  0  0  0  0  0  0  0  0  0
   26.9192   78.5661   62.8408 C   0  0  0  0  0  0  0  0  0  0  0  0
   26.0823   78.6991   61.7295 C   0  0  0  0  0  0  0  0  0  0  0  0
   26.8906   77.3494   63.4642 O   0  0  0  0  0  0  0  0  0  0  0  0
   27.9022   83.1358   63.1278 O   0  0  0  0  0  0  0  0  0  0  0  0
   26.8151   81.9175   60.9005 H   0  0  0  0  0  0  0  0  0  0  0  0
   25.3797   80.0255   60.1826 H   0  0  0  0  0  0  0  0  0  0  0  0
   28.5047   78.6743   64.7454 H   0  0  0  0  0  0  0  0  0  0  0  0
   25.4570   77.8705   61.4142 H   0  0  0  0  0  0  0  0  0  0  0  0
   27.5238   77.3290   64.1964 H   0  0  0  0  0  0  0  0  0  0  0  0
  1  2  2  0  0  0  0
  1  3  1  0  0  0  0
  1 11  1  0  0  0  0
  3  4  2  0  0  0  0
  3  6  1  0  0  0  0
  4  5  1  0  0  0  0
  4 12  1  0  0  0  0
  5  9  2  0  0  0  0
  5 13  1  0  0  0  0
  6  7  1  0  0  0  0
  6  8  2  0  0  0  0
  7 14  1  0  0  0  0
  8  9  1  0  0  0  0
  8 10  1  0  0  0  0
  9 15  1  0  0  0  0
 10 16  1  0  0  0  0
M  END
$$$$
