DF3
 OpenBabel04091913153D

 63 67  0  0  1  0  0  0  0  0999 V2000
   20.7935    1.1265  -26.3434 O   0  0  0  0  0  0  0  0  0  0  0  0
   22.1175    0.9683  -21.4619 O   0  0  0  0  0  0  0  0  0  0  0  0
   23.5349   -5.4754  -19.2426 F   0  0  0  0  0  0  0  0  0  0  0  0
   21.4760   -4.8676  -19.5758 F   0  0  0  0  0  0  0  0  0  0  0  0
   22.5863   -5.8397  -21.1699 F   0  0  0  0  0  0  0  0  0  0  0  0
   24.8534   -2.2437  -21.8097 C   0  0  0  0  0  0  0  0  0  0  0  0
   17.5958    3.6013  -23.5652 C   0  0  0  0  0  0  0  0  0  0  0  0
   17.5252    3.9212  -22.2155 C   0  0  0  0  0  0  0  0  0  0  0  0
   24.1011   -1.0899  -21.5819 C   0  0  0  0  0  0  0  0  0  0  0  0
   24.4022   -3.4808  -21.3449 C   0  0  0  0  0  0  0  0  0  0  0  0
   21.6847    3.6784  -25.7182 C   0  0  0  0  0  0  0  0  0  0  0  0
   21.5901    5.0434  -25.9497 C   0  0  0  0  0  0  0  0  0  0  0  0
   18.0237    2.3309  -23.9815 C   0  0  0  0  0  0  0  0  0  0  0  0
   17.8886    2.9890  -21.2406 C   0  0  0  0  0  0  0  0  0  0  0  0
   21.3362    4.0086  -23.3494 C   0  0  0  0  0  0  0  0  0  0  0  0
   22.4342   -2.4178  -20.4298 C   0  0  0  0  0  0  0  0  0  0  0  0
   19.0682   -0.4098  -21.7809 C   0  0  0  0  0  0  0  0  0  0  0  0
   20.3874    1.0985  -19.1491 C   0  0  0  0  0  0  0  0  0  0  0  0
   21.2290    8.0293  -24.0145 C   0  0  0  0  0  0  0  0  0  0  0  0
   20.2944    7.4023  -22.9921 C   0  0  0  0  0  0  0  0  0  0  0  0
   18.9857    0.5991  -19.5109 C   0  0  0  0  0  0  0  0  0  0  0  0
   20.9891   -0.5692  -24.7015 C   0  0  0  0  0  0  0  0  0  0  0  0
   21.4038    0.0984  -19.4461 N   0  0  0  0  0  0  0  0  0  0  0  0
   21.5211    1.7598  -24.2141 N   0  0  0  0  0  0  0  0  0  0  0  0
   21.2682    7.2244  -25.1938 O   0  0  0  0  0  0  0  0  0  0  0  0
   20.8653    6.1744  -22.5172 O   0  0  0  0  0  0  0  0  0  0  0  0
   19.2242   -0.9567  -24.4679 S   0  0  0  0  0  0  0  0  0  0  0  0
   21.1114    0.8536  -25.1833 C   0  0  0  0  0  0  0  0  0  0  0  0
   22.1156    0.0743  -20.6288 C   0  0  0  0  0  0  0  0  0  0  0  0
   21.5372    3.1510  -24.4334 C   0  0  1  0  0  0  0  0  0  0  0  0
   22.9006   -1.1707  -20.8713 C   0  0  0  0  0  0  0  0  0  0  0  0
   23.1863   -3.5836  -20.6573 C   0  0  0  0  0  0  0  0  0  0  0  0
   21.3587    5.8946  -24.8834 C   0  0  1  0  0  0  0  0  0  0  0  0
   21.2013    5.3776  -23.5868 C   0  0  2  0  0  0  0  0  0  0  0  0
   18.8762    0.0230  -23.0663 C   0  0  2  0  0  0  0  0  0  0  0  0
   18.3872    1.3627  -23.0192 C   0  0  1  0  0  0  0  0  0  0  0  0
   18.3162    1.7172  -21.6658 C   0  0  1  0  0  0  0  0  0  0  0  0
   18.7633    0.6295  -20.9451 N   0  3  1  0  0  0  0  0  0  0  0  0
   22.6952   -4.9265  -20.1684 C   0  0  0  0  0  0  0  0  0  0  0  0
   25.7947   -2.1793  -22.3523 H   0  0  0  0  0  0  0  0  0  0  0  0
   17.3312    4.3466  -24.3132 H   0  0  0  0  0  0  0  0  0  0  0  0
   17.1958    4.9137  -21.9120 H   0  0  0  0  0  0  0  0  0  0  0  0
   24.4588   -0.1318  -21.9512 H   0  0  0  0  0  0  0  0  0  0  0  0
   25.0029   -4.3713  -21.5307 H   0  0  0  0  0  0  0  0  0  0  0  0
   21.8717    3.0411  -26.5759 H   0  0  0  0  0  0  0  0  0  0  0  0
   21.6751    5.4268  -26.9596 H   0  0  0  0  0  0  0  0  0  0  0  0
   18.1028    2.1100  -25.0421 H   0  0  0  0  0  0  0  0  0  0  0  0
   17.8454    3.2552  -20.1914 H   0  0  0  0  0  0  0  0  0  0  0  0
   21.1880    3.6211  -22.3435 H   0  0  0  0  0  0  0  0  0  0  0  0
   21.4716   -2.5006  -19.9309 H   0  0  0  0  0  0  0  0  0  0  0  0
   19.4453   -1.3493  -21.4027 H   0  0  0  0  0  0  0  0  0  0  0  0
   20.4413    1.2783  -18.0726 H   0  0  0  0  0  0  0  0  0  0  0  0
   20.6265    2.0322  -19.6707 H   0  0  0  0  0  0  0  0  0  0  0  0
   22.2499    8.1250  -23.6263 H   0  0  0  0  0  0  0  0  0  0  0  0
   20.8734    9.0207  -24.3094 H   0  0  0  0  0  0  0  0  0  0  0  0
   19.3090    7.1848  -23.4269 H   0  0  0  0  0  0  0  0  0  0  0  0
   20.1545    8.0672  -22.1358 H   0  0  0  0  0  0  0  0  0  0  0  0
   18.2111    1.2096  -19.0366 H   0  0  0  0  0  0  0  0  0  0  0  0
   18.8373   -0.4355  -19.1778 H   0  0  0  0  0  0  0  0  0  0  0  0
   21.3953   -1.2112  -25.4911 H   0  0  0  0  0  0  0  0  0  0  0  0
   21.5770   -0.7476  -23.7979 H   0  0  0  0  0  0  0  0  0  0  0  0
   21.4787   -0.6817  -18.8029 H   0  0  0  0  0  0  0  0  0  0  0  0
   21.5313    1.4533  -23.2349 H   0  0  0  0  0  0  0  0  0  0  0  0
  1 28  2  0  0  0  0
  2 29  2  0  0  0  0
  3 39  1  0  0  0  0
  4 39  1  0  0  0  0
  5 39  1  0  0  0  0
  6  9  2  0  0  0  0
  6 10  1  0  0  0  0
  6 40  1  0  0  0  0
  7  8  1  0  0  0  0
  7 13  1  0  0  0  0
  7 41  1  0  0  0  0
  8 14  1  0  0  0  0
  8 42  1  0  0  0  0
  9 31  1  0  0  0  0
  9 43  1  0  0  0  0
 10 32  2  0  0  0  0
 10 44  1  0  0  0  0
 11 12  1  0  0  0  0
 11 30  1  0  0  0  0
 11 45  1  0  0  0  0
 12 46  1  0  0  0  0
 13 47  1  0  0  0  0
 14 48  1  0  0  0  0
 15 30  1  0  0  0  0
 15 49  1  0  0  0  0
 16 31  2  0  0  0  0
 16 32  1  0  0  0  0
 16 50  1  0  0  0  0
 17 35  1  0  0  0  0
 17 38  1  0  0  0  0
 17 51  1  0  0  0  0
 18 21  1  0  0  0  0
 18 23  1  0  0  0  0
 18 52  1  0  0  0  0
 18 53  1  0  0  0  0
 19 20  1  0  0  0  0
 19 25  1  0  0  0  0
 19 54  1  0  0  0  0
 19 55  1  0  0  0  0
 20 26  1  0  0  0  0
 20 56  1  0  0  0  0
 20 57  1  0  0  0  0
 21 58  1  0  0  0  0
 21 59  1  0  0  0  0
 22 27  1  0  0  0  0
 22 28  1  0  0  0  0
 22 60  1  0  0  0  0
 22 61  1  0  0  0  0
 23 29  1  0  0  0  0
 23 62  1  0  0  0  0
 24 28  1  0  0  0  0
 24 63  1  0  0  0  0
 25 33  1  0  0  0  0
 26 34  1  0  0  0  0
 29 31  1  0  0  0  0
 30 24  1  6  0  0  0
 32 39  1  0  0  0  0
 33 12  1  6  0  0  0
 33 34  1  0  0  0  0
 34 15  1  6  0  0  0
 35 27  1  6  0  0  0
 35 36  1  0  0  0  0
 36 13  1  6  0  0  0
 36 37  1  0  0  0  0
 37 14  1  6  0  0  0
 37 38  1  0  0  0  0
 38 21  1  6  0  0  0
M  CHG  1  38   1
M  END
$$$$
