DHY
 OpenBabel04091914383D

 19 19  0  0  0  0  0  0  0  0999 V2000
   14.1626   11.5294   40.6148 C   0  0  0  0  0  0  0  0  0  0  0  0
   14.3387   10.1886   40.2334 C   0  0  0  0  0  0  0  0  0  0  0  0
   14.0990    9.1802   41.1561 C   0  0  0  0  0  0  0  0  0  0  0  0
   13.6879    9.4822   42.4508 C   0  0  0  0  0  0  0  0  0  0  0  0
   13.4981   10.7988   42.8419 C   0  0  0  0  0  0  0  0  0  0  0  0
   13.7172   11.8192   41.9146 C   0  0  0  0  0  0  0  0  0  0  0  0
   14.4706   12.6551   39.6525 C   0  0  0  0  0  0  0  0  0  0  0  0
   15.6588   13.5019   40.1227 C   0  0  0  0  0  0  0  0  0  0  0  0
   16.7879   13.1486   39.6777 O   0  0  0  0  0  0  0  0  0  0  0  0
   15.3569   14.4932   40.8529 O   0  0  0  0  0  0  0  0  0  0  0  0
   14.2879    7.8757   40.7838 O   0  0  0  0  0  0  0  0  0  0  0  0
   13.4464    8.4867   43.3531 O   0  0  0  0  0  0  0  0  0  0  0  0
   14.6946    9.9441   39.2367 H   0  0  0  0  0  0  0  0  0  0  0  0
   13.1836   11.0359   43.8496 H   0  0  0  0  0  0  0  0  0  0  0  0
   13.5752   12.8588   42.2132 H   0  0  0  0  0  0  0  0  0  0  0  0
   13.5832   13.2896   39.5430 H   0  0  0  0  0  0  0  0  0  0  0  0
   14.6865   12.2592   38.6528 H   0  0  0  0  0  0  0  0  0  0  0  0
   14.4597    7.3914   41.6102 H   0  0  0  0  0  0  0  0  0  0  0  0
   12.8175    7.9044   42.9063 H   0  0  0  0  0  0  0  0  0  0  0  0
  1  7  1  0  0  0  0
  1  6  2  0  0  0  0
  1  2  1  0  0  0  0
  2  3  2  0  0  0  0
  2 13  1  0  0  0  0
  3 11  1  0  0  0  0
  3  4  1  0  0  0  0
  4 12  1  0  0  0  0
  4  5  2  0  0  0  0
  5  6  1  0  0  0  0
  5 14  1  0  0  0  0
  6 15  1  0  0  0  0
  7  8  1  0  0  0  0
  7 16  1  0  0  0  0
  7 17  1  0  0  0  0
  8 10  2  0  0  0  0
  8  9  1  0  0  0  0
 11 18  1  0  0  0  0
 12 19  1  0  0  0  0
M  END
$$$$
