DIE
 OpenBabel04091912093D

 25 25  0  0  0  0  0  0  0  0999 V2000
   30.5864    0.2443   34.5187 C   0  0  0  0  0  0  0  0  0  0  0  0
   31.4737   -0.7185   35.3011 C   0  0  0  0  0  0  0  0  0  0  0  0
   32.8398   -0.1694   35.6570 C   0  0  0  0  0  0  0  0  0  0  0  0
   33.0363    0.3067   36.9550 C   0  0  0  0  0  0  0  0  0  0  0  0
   34.2795    0.8000   37.3617 C   0  0  0  0  0  0  0  0  0  0  0  0
   35.3447    0.8321   36.4779 C   0  0  0  0  0  0  0  0  0  0  0  0
   35.2005    0.3765   35.1662 C   0  0  0  0  0  0  0  0  0  0  0  0
   36.4131    0.4200   34.2516 C   0  0  0  0  0  0  0  0  0  0  0  0
   36.0601    0.5642   32.7713 C   0  0  0  0  0  0  0  0  0  0  0  0
   33.9423   -0.1297   34.7828 C   0  0  0  0  0  0  0  0  0  0  0  0
   33.8030   -0.6559   33.5274 O   0  0  0  0  0  0  0  0  0  0  0  0
   29.6143   -0.2190   34.3224 H   0  0  0  0  0  0  0  0  0  0  0  0
   31.0307    0.5091   33.5542 H   0  0  0  0  0  0  0  0  0  0  0  0
   30.4098    1.1670   35.0802 H   0  0  0  0  0  0  0  0  0  0  0  0
   31.5822   -1.6508   34.7331 H   0  0  0  0  0  0  0  0  0  0  0  0
   30.9483   -0.9931   36.2191 H   0  0  0  0  0  0  0  0  0  0  0  0
   32.2188    0.2871   37.6709 H   0  0  0  0  0  0  0  0  0  0  0  0
   34.3990    1.1646   38.3786 H   0  0  0  0  0  0  0  0  0  0  0  0
   36.3090    1.2226   36.8211 H   0  0  0  0  0  0  0  0  0  0  0  0
   37.0097   -0.4806   34.3988 H   0  0  0  0  0  0  0  0  0  0  0  0
   37.0359    1.2799   34.5203 H   0  0  0  0  0  0  0  0  0  0  0  0
   36.9579    0.6213   32.1500 H   0  0  0  0  0  0  0  0  0  0  0  0
   35.4427    1.4531   32.6083 H   0  0  0  0  0  0  0  0  0  0  0  0
   35.5306   -0.3102   32.3968 H   0  0  0  0  0  0  0  0  0  0  0  0
   32.9035   -0.8948   33.3543 H   0  0  0  0  0  0  0  0  0  0  0  0
  1  2  1  0  0  0  0
  1 12  1  0  0  0  0
  1 13  1  0  0  0  0
  1 14  1  0  0  0  0
  2  3  1  0  0  0  0
  2 15  1  0  0  0  0
  2 16  1  0  0  0  0
  3  4  2  0  0  0  0
  3 10  1  0  0  0  0
  4  5  1  0  0  0  0
  4 17  1  0  0  0  0
  5  6  2  0  0  0  0
  5 18  1  0  0  0  0
  6  7  1  0  0  0  0
  6 19  1  0  0  0  0
  7  8  1  0  0  0  0
  7 10  2  0  0  0  0
  8  9  1  0  0  0  0
  8 20  1  0  0  0  0
  8 21  1  0  0  0  0
  9 22  1  0  0  0  0
  9 23  1  0  0  0  0
  9 24  1  0  0  0  0
 10 11  1  0  0  0  0
 11 25  1  0  0  0  0
M  END
$$$$
