DIH
 OpenBabel04091911023D

 36 38  0  0  1  0  0  0  0  0999 V2000
   17.4527   12.1429   59.8023 O   0  0  0  0  0  0  0  0  0  0  0  0
   16.7629   10.9632   60.1861 C   0  0  0  0  0  0  0  0  0  0  0  0
   15.3685   11.3019   60.7226 C   0  0  2  0  0  0  0  0  0  0  0  0
   14.3895   11.2895   59.5669 C   0  0  0  0  0  0  0  0  0  0  0  0
   15.2040   12.7270   61.2714 C   0  0  2  0  0  0  0  0  0  0  0  0
   14.1793   12.6953   62.2657 O   0  0  0  0  0  0  0  0  0  0  0  0
   14.7228   13.6000   60.0836 C   0  0  0  0  0  0  0  0  0  0  0  0
   14.6027   12.6307   58.9410 N   0  3  2  0  0  0  0  0  0  0  0  0
   13.6538   12.8846   57.8143 C   0  0  0  0  0  0  0  0  0  0  0  0
   14.2035   12.1567   56.6348 C   0  0  1  0  0  0  0  0  0  0  0  0
   15.2657   12.5670   55.8412 C   0  0  0  0  0  0  0  0  0  0  0  0
   15.5607   11.5725   54.9343 N   0  3  0  0  0  0  0  0  0  0  0  0
   14.6986   10.5299   55.1280 C   0  0  1  0  0  0  0  0  0  0  0  0
   14.6400    9.2698   54.4503 C   0  0  0  0  0  0  0  0  0  0  0  0
   15.3648    8.9289   53.5374 O   0  0  0  0  0  0  0  0  0  0  0  0
   13.6322    8.4787   54.9644 N   0  3  0  0  0  0  0  0  0  0  0  0
   12.8415    8.8682   56.0260 C   0  0  0  0  0  0  0  0  0  0  0  0
   12.9075    9.9952   56.6712 N   0  0  0  0  0  0  0  0  0  0  0  0
   13.8709   10.8664   56.1631 C   0  0  1  0  0  0  0  0  0  0  0  0
   18.3714   11.8740   59.5938 H   0  0  0  0  0  0  0  0  0  0  0  0
   17.3364   10.4214   60.9439 H   0  0  0  0  0  0  0  0  0  0  0  0
   16.7055   10.3258   59.2965 H   0  0  0  0  0  0  0  0  0  0  0  0
   15.0635   10.5365   61.4442 H   0  0  0  0  0  0  0  0  0  0  0  0
   13.3457   11.2228   59.8916 H   0  0  0  0  0  0  0  0  0  0  0  0
   14.6055   10.5098   58.8336 H   0  0  0  0  0  0  0  0  0  0  0  0
   16.1112   13.1332   61.7313 H   0  0  0  0  0  0  0  0  0  0  0  0
   14.4966   12.1488   63.0104 H   0  0  0  0  0  0  0  0  0  0  0  0
   15.4628   14.3538   59.7937 H   0  0  0  0  0  0  0  0  0  0  0  0
   13.7469   14.0643   60.2583 H   0  0  0  0  0  0  0  0  0  0  0  0
   13.6212   13.9645   57.6328 H   0  0  0  0  0  0  0  0  0  0  0  0
   12.6555   12.5395   58.1085 H   0  0  0  0  0  0  0  0  0  0  0  0
   15.8635   13.4719   55.8716 H   0  0  0  0  0  0  0  0  0  0  0  0
   16.2998   11.6026   54.2369 H   0  0  0  0  0  0  0  0  0  0  0  0
   13.5007    7.5784   54.5217 H   0  0  0  0  0  0  0  0  0  0  0  0
   12.0927    8.1025   56.3052 H   0  0  0  0  0  0  0  0  0  0  0  0
   15.5453   12.6257   58.5215 H   0  0  0  0  0  0  0  0  0  0  0  0
  1  2  1  0  0  0  0
  1 20  1  0  0  0  0
  2  3  1  0  0  0  0
  2 21  1  0  0  0  0
  2 22  1  0  0  0  0
  3  4  1  0  0  0  0
  3  5  1  0  0  0  0
  3 23  1  1  0  0  0
  4  8  1  0  0  0  0
  4 24  1  0  0  0  0
  4 25  1  0  0  0  0
  5  6  1  0  0  0  0
  5  7  1  0  0  0  0
  5 26  1  1  0  0  0
  6 27  1  0  0  0  0
  7  8  1  0  0  0  0
  7 28  1  0  0  0  0
  7 29  1  0  0  0  0
  8  9  1  0  0  0  0
  8 36  1  6  0  0  0
  9 30  1  0  0  0  0
  9 31  1  0  0  0  0
 10  9  1  1  0  0  0
 10 11  1  0  0  0  0
 10 19  1  0  0  0  0
 11 12  1  0  0  0  0
 11 32  1  0  0  0  0
 12 33  1  0  0  0  0
 13 12  1  1  0  0  0
 13 14  1  0  0  0  0
 13 19  1  0  0  0  0
 14 15  2  0  0  0  0
 14 16  1  0  0  0  0
 16 17  1  0  0  0  0
 16 34  1  0  0  0  0
 17 18  1  0  0  0  0
 17 35  1  0  0  0  0
 19 18  1  1  0  0  0
M  CHG  3   8   1  12   1  16   1
M  END
$$$$
