DIW
 OpenBabel04091915363D

 61 64  0  0  0  0  0  0  0  0999 V2000
   20.6789   -2.8992   -8.6460 C   0  0  0  0  0  0  0  0  0  0  0  0
   22.9216   -2.7665   -9.5392 C   0  0  0  0  0  0  0  0  0  0  0  0
   22.0381   -2.7531   -8.4588 C   0  0  0  0  0  0  0  0  0  0  0  0
   22.7670   -2.5610   -7.2719 N   0  0  0  0  0  0  0  0  0  0  0  0
   24.0309   -2.4541   -7.5466 C   0  0  0  0  0  0  0  0  0  0  0  0
   24.3138   -2.5338   -9.0475 C   0  0  0  0  0  0  0  0  0  0  0  0
   25.0712   -2.2389   -6.5518 C   0  0  0  0  0  0  0  0  0  0  0  0
   26.3749   -2.1126   -6.8330 C   0  0  0  0  0  0  0  0  0  0  0  0
   27.2044   -1.8938   -5.6434 C   0  0  0  0  0  0  0  0  0  0  0  0
   28.6965   -1.8341   -5.6742 C   0  0  0  0  0  0  0  0  0  0  0  0
   29.3288   -1.7081   -4.4259 C   0  0  0  0  0  0  0  0  0  0  0  0
   30.7455   -1.6637   -4.3520 C   0  0  0  0  0  0  0  0  0  0  0  0
   31.4847   -1.6966   -5.5020 N   0  3  0  0  0  0  0  0  0  0  0  0
   30.8638   -1.8281   -6.7056 C   0  0  0  0  0  0  0  0  0  0  0  0
   29.4767   -1.8961   -6.8129 C   0  0  0  0  0  0  0  0  0  0  0  0
   31.3241   -1.5891   -3.0740 C   0  0  0  0  0  0  0  0  0  0  0  0
   30.5736   -1.4939   -1.9088 C   0  0  0  0  0  0  0  0  0  0  0  0
   29.1997   -1.5267   -1.9813 C   0  0  0  0  0  0  0  0  0  0  0  0
   28.5842   -1.6411   -3.2158 C   0  0  0  0  0  0  0  0  0  0  0  0
   33.0001   -1.7511   -5.4959 C   0  0  0  0  0  0  0  0  0  0  0  0
   33.6658   -0.5608   -4.7960 C   0  0  0  0  0  0  0  0  0  0  0  0
   34.7938   -1.0434   -3.8707 C   0  0  0  0  0  0  0  0  0  0  0  0
   36.2741   -1.5114   -4.7297 S   0  0  0  0  0  0  0  0  0  0  0  0
   25.2556   -3.6878   -9.4122 C   0  0  0  0  0  0  0  0  0  0  0  0
   24.8300   -1.1767   -9.5426 C   0  0  0  0  0  0  0  0  0  0  0  0
   22.1396   -2.4777   -5.9402 C   0  0  0  0  0  0  0  0  0  0  0  0
   20.2196   -3.0719   -9.9567 C   0  0  0  0  0  0  0  0  0  0  0  0
   37.0946   -2.0467   -3.6631 O   0  0  0  0  0  0  0  0  0  0  0  0
   21.1128   -3.0918  -11.0402 C   0  0  0  0  0  0  0  0  0  0  0  0
   36.7009   -0.2575   -5.3254 O   0  0  0  0  0  0  0  0  0  0  0  0
   22.4774   -2.9334  -10.8367 C   0  0  0  0  0  0  0  0  0  0  0  0
   35.7382   -2.4978   -5.6795 O   0  0  0  0  0  0  0  0  0  0  0  0
   19.9535   -2.8830   -7.8417 H   0  0  0  0  0  0  0  0  0  0  0  0
   24.7608   -2.1614   -5.5104 H   0  0  0  0  0  0  0  0  0  0  0  0
   26.8275   -2.1481   -7.8117 H   0  0  0  0  0  0  0  0  0  0  0  0
   26.9446   -2.7354   -4.9870 H   0  0  0  0  0  0  0  0  0  0  0  0
   26.8495   -0.9436   -5.2276 H   0  0  0  0  0  0  0  0  0  0  0  0
   31.4867   -1.9097   -7.5876 H   0  0  0  0  0  0  0  0  0  0  0  0
   29.0365   -2.0114   -7.8000 H   0  0  0  0  0  0  0  0  0  0  0  0
   32.3945   -1.5817   -2.9354 H   0  0  0  0  0  0  0  0  0  0  0  0
   31.0789   -1.3921   -0.9510 H   0  0  0  0  0  0  0  0  0  0  0  0
   28.6019   -1.4727   -1.0733 H   0  0  0  0  0  0  0  0  0  0  0  0
   27.5020   -1.6739   -3.2063 H   0  0  0  0  0  0  0  0  0  0  0  0
   33.3189   -1.7707   -6.5407 H   0  0  0  0  0  0  0  0  0  0  0  0
   33.2287   -2.7132   -5.0290 H   0  0  0  0  0  0  0  0  0  0  0  0
   32.9565    0.0299   -4.2102 H   0  0  0  0  0  0  0  0  0  0  0  0
   34.0579    0.1327   -5.5469 H   0  0  0  0  0  0  0  0  0  0  0  0
   34.4853   -1.9239   -3.2964 H   0  0  0  0  0  0  0  0  0  0  0  0
   35.0638   -0.2579   -3.1560 H   0  0  0  0  0  0  0  0  0  0  0  0
   25.4403   -3.7244  -10.4889 H   0  0  0  0  0  0  0  0  0  0  0  0
   24.8575   -4.6545   -9.0867 H   0  0  0  0  0  0  0  0  0  0  0  0
   26.2423   -3.6098   -8.9511 H   0  0  0  0  0  0  0  0  0  0  0  0
   24.1429   -0.3684   -9.2635 H   0  0  0  0  0  0  0  0  0  0  0  0
   24.9509   -1.1688  -10.6280 H   0  0  0  0  0  0  0  0  0  0  0  0
   25.8001   -0.9100   -9.1154 H   0  0  0  0  0  0  0  0  0  0  0  0
   21.0567   -2.5843   -5.9882 H   0  0  0  0  0  0  0  0  0  0  0  0
   22.3908   -1.5057   -5.5007 H   0  0  0  0  0  0  0  0  0  0  0  0
   22.5605   -3.2716   -5.3139 H   0  0  0  0  0  0  0  0  0  0  0  0
   19.1559   -3.1881  -10.1528 H   0  0  0  0  0  0  0  0  0  0  0  0
   20.7306   -3.2187  -12.0523 H   0  0  0  0  0  0  0  0  0  0  0  0
   23.1691   -2.9369  -11.6744 H   0  0  0  0  0  0  0  0  0  0  0  0
  1  3  2  0  0  0  0
  1 27  1  0  0  0  0
  1 33  1  0  0  0  0
  2  3  1  0  0  0  0
  2  6  1  0  0  0  0
  2 31  2  0  0  0  0
  3  4  1  0  0  0  0
  4  5  2  0  0  0  0
  4 26  1  0  0  0  0
  5  6  1  0  0  0  0
  5  7  1  0  0  0  0
  6 24  1  0  0  0  0
  6 25  1  0  0  0  0
  7  8  2  0  0  0  0
  7 34  1  0  0  0  0
  8  9  1  0  0  0  0
  8 35  1  0  0  0  0
  9 10  1  0  0  0  0
  9 36  1  0  0  0  0
  9 37  1  0  0  0  0
 10 11  2  0  0  0  0
 10 15  1  0  0  0  0
 11 12  1  0  0  0  0
 11 19  1  0  0  0  0
 12 13  2  0  0  0  0
 12 16  1  0  0  0  0
 13 14  1  0  0  0  0
 13 20  1  0  0  0  0
 14 15  2  0  0  0  0
 14 38  1  0  0  0  0
 15 39  1  0  0  0  0
 16 17  2  0  0  0  0
 16 40  1  0  0  0  0
 17 18  1  0  0  0  0
 17 41  1  0  0  0  0
 18 19  2  0  0  0  0
 18 42  1  0  0  0  0
 19 43  1  0  0  0  0
 20 21  1  0  0  0  0
 20 44  1  0  0  0  0
 20 45  1  0  0  0  0
 21 22  1  0  0  0  0
 21 46  1  0  0  0  0
 21 47  1  0  0  0  0
 22 23  1  0  0  0  0
 22 48  1  0  0  0  0
 22 49  1  0  0  0  0
 23 28  2  0  0  0  0
 23 30  2  0  0  0  0
 23 32  1  0  0  0  0
 24 50  1  0  0  0  0
 24 51  1  0  0  0  0
 24 52  1  0  0  0  0
 25 53  1  0  0  0  0
 25 54  1  0  0  0  0
 25 55  1  0  0  0  0
 26 56  1  0  0  0  0
 26 57  1  0  0  0  0
 26 58  1  0  0  0  0
 27 29  2  0  0  0  0
 27 59  1  0  0  0  0
 29 31  1  0  0  0  0
 29 60  1  0  0  0  0
 31 61  1  0  0  0  0
M  CHG  1  13   1
M  END
$$$$
