DM1
 OpenBabel04091912263D

 66 70  0  0  1  0  0  0  0  0999 V2000
   25.4953   39.1717   47.9414 C   0  0  0  0  0  0  0  0  0  0  0  0
   26.1506   38.8090   46.7814 C   0  0  0  0  0  0  0  0  0  0  0  0
   25.4648   38.0401   45.8327 C   0  0  0  0  0  0  0  0  0  0  0  0
   24.1693   37.6555   46.0647 C   0  0  0  0  0  0  0  0  0  0  0  0
   23.4800   36.9239   45.1309 O   0  0  0  0  0  0  0  0  0  0  0  0
   23.5221   38.0421   47.2321 C   0  0  0  0  0  0  0  0  0  0  0  0
   22.1524   37.6281   47.4560 C   0  0  0  0  0  0  0  0  0  0  0  0
   21.6115   36.9582   46.5953 O   0  0  0  0  0  0  0  0  0  0  0  0
   21.4589   38.0287   48.7164 C   0  0  0  0  0  0  0  0  0  0  0  0
   20.1092   37.6013   48.8750 C   0  0  0  0  0  0  0  0  0  0  0  0
   19.5109   36.9113   47.9925 O   0  0  0  0  0  0  0  0  0  0  0  0
   19.5168   38.0136   50.0931 C   0  0  0  0  0  0  0  0  0  0  0  0
   18.0724   37.6109   50.4089 C   0  0  1  0  0  0  0  0  0  0  0  0
   17.6784   36.5126   49.5764 O   0  0  0  0  0  0  0  0  0  0  0  0
   17.9867   37.1110   51.8446 C   0  0  0  0  0  0  0  0  0  0  0  0
   18.5254   38.0793   52.8947 C   0  0  2  0  0  0  0  0  0  0  0  0
   19.2430   37.2789   53.8662 O   0  0  0  0  0  0  0  0  0  0  0  0
   17.2928   38.7169   53.6061 C   0  0  0  0  0  0  0  0  0  0  0  0
   16.1551   38.6711   53.1607 O   0  0  0  0  0  0  0  0  0  0  0  0
   17.5707   39.4390   54.9228 C   0  0  0  0  0  0  0  0  0  0  0  0
   19.4452   39.1809   52.3427 C   0  0  0  0  0  0  0  0  0  0  0  0
   20.2044   38.7888   51.0692 C   0  0  0  0  0  0  0  0  0  0  0  0
   21.5445   39.2198   50.8928 C   0  0  0  0  0  0  0  0  0  0  0  0
   22.1400   39.9121   51.7641 O   0  0  0  0  0  0  0  0  0  0  0  0
   22.1300   38.7942   49.6713 C   0  0  0  0  0  0  0  0  0  0  0  0
   23.5394   39.1932   49.3991 C   0  0  0  0  0  0  0  0  0  0  0  0
   24.2185   39.8538   50.1510 O   0  0  0  0  0  0  0  0  0  0  0  0
   24.1845   38.7848   48.1614 C   0  0  0  0  0  0  0  0  0  0  0  0
   24.2748   36.1439   44.2691 C   0  0  0  0  0  0  0  0  0  0  0  0
   16.3226   36.4229   49.3005 C   0  0  1  0  0  0  0  0  0  0  0  0
   16.1045   35.8963   47.8877 C   0  0  0  0  0  0  0  0  0  0  0  0
   16.6025   34.4676   47.7725 C   0  0  2  0  0  0  0  0  0  0  0  0
   16.1136   33.8985   46.4635 N   0  3  0  0  0  0  0  0  0  0  0  0
   16.1166   33.5518   48.9053 C   0  0  2  0  0  0  0  0  0  0  0  0
   14.7261   33.2089   48.6883 O   0  0  0  0  0  0  0  0  0  0  0  0
   16.3404   34.2435   50.2505 C   0  0  1  0  0  0  0  0  0  0  0  0
   15.7213   35.5364   50.2458 O   0  0  0  0  0  0  0  0  0  0  0  0
   15.7645   33.4293   51.4021 C   0  0  0  0  0  0  0  0  0  0  0  0
   26.0131   39.7666   48.6863 H   0  0  0  0  0  0  0  0  0  0  0  0
   27.1519   39.0983   46.5967 H   0  0  0  0  0  0  0  0  0  0  0  0
   25.9789   37.7658   44.9306 H   0  0  0  0  0  0  0  0  0  0  0  0
   17.4036   38.4689   50.2409 H   0  0  0  0  0  0  0  0  0  0  0  0
   18.5286   36.1588   51.9076 H   0  0  0  0  0  0  0  0  0  0  0  0
   16.9336   36.8741   52.0507 H   0  0  0  0  0  0  0  0  0  0  0  0
   19.6525   37.8808   54.5106 H   0  0  0  0  0  0  0  0  0  0  0  0
   16.6277   39.8370   55.3138 H   0  0  0  0  0  0  0  0  0  0  0  0
   18.2665   40.2656   54.7651 H   0  0  0  0  0  0  0  0  0  0  0  0
   17.9878   38.7468   55.6585 H   0  0  0  0  0  0  0  0  0  0  0  0
   20.1774   39.4311   53.1223 H   0  0  0  0  0  0  0  0  0  0  0  0
   18.8484   40.0843   52.1452 H   0  0  0  0  0  0  0  0  0  0  0  0
   23.5869   35.6285   43.6045 H   0  0  0  0  0  0  0  0  0  0  0  0
   24.8635   35.4112   44.8313 H   0  0  0  0  0  0  0  0  0  0  0  0
   24.9274   36.7728   43.6584 H   0  0  0  0  0  0  0  0  0  0  0  0
   15.8655   37.4043   49.3832 H   0  0  0  0  0  0  0  0  0  0  0  0
   16.6405   36.5182   47.1590 H   0  0  0  0  0  0  0  0  0  0  0  0
   15.0314   35.9392   47.6558 H   0  0  0  0  0  0  0  0  0  0  0  0
   17.6903   34.4316   47.7133 H   0  0  0  0  0  0  0  0  0  0  0  0
   16.4269   32.9288   46.3596 H   0  0  0  0  0  0  0  0  0  0  0  0
   15.0847   33.9156   46.4470 H   0  0  0  0  0  0  0  0  0  0  0  0
   16.6823   32.6123   48.8779 H   0  0  0  0  0  0  0  0  0  0  0  0
   14.4480   32.6654   49.4552 H   0  0  0  0  0  0  0  0  0  0  0  0
   17.4177   34.3405   50.4191 H   0  0  0  0  0  0  0  0  0  0  0  0
   15.9323   33.9428   52.3555 H   0  0  0  0  0  0  0  0  0  0  0  0
   16.2381   32.4414   51.4454 H   0  0  0  0  0  0  0  0  0  0  0  0
   14.6821   33.2945   51.2907 H   0  0  0  0  0  0  0  0  0  0  0  0
   16.4863   34.4594   45.6869 H   0  0  0  0  0  0  0  0  0  0  0  0
  1  2  2  0  0  0  0
  1 28  1  0  0  0  0
  1 39  1  0  0  0  0
  2  3  1  0  0  0  0
  2 40  1  0  0  0  0
  3  4  2  0  0  0  0
  3 41  1  0  0  0  0
  4  5  1  0  0  0  0
  4  6  1  0  0  0  0
  5 29  1  0  0  0  0
  6  7  1  0  0  0  0
  6 28  2  0  0  0  0
  7  8  2  0  0  0  0
  7  9  1  0  0  0  0
  9 10  2  0  0  0  0
  9 25  1  0  0  0  0
 10 11  1  0  0  0  0
 10 12  1  0  0  0  0
 12 13  1  0  0  0  0
 12 22  2  0  0  0  0
 13 14  1  0  0  0  0
 13 15  1  0  0  0  0
 13 42  1  6  0  0  0
 14 30  1  0  0  0  0
 15 16  1  0  0  0  0
 15 43  1  0  0  0  0
 15 44  1  0  0  0  0
 16 17  1  1  0  0  0
 16 18  1  0  0  0  0
 16 21  1  0  0  0  0
 17 45  1  0  0  0  0
 18 19  2  0  0  0  0
 18 20  1  0  0  0  0
 20 46  1  0  0  0  0
 20 47  1  0  0  0  0
 20 48  1  0  0  0  0
 21 22  1  0  0  0  0
 21 49  1  0  0  0  0
 21 50  1  0  0  0  0
 22 23  1  0  0  0  0
 23 24  1  0  0  0  0
 23 25  2  0  0  0  0
 25 26  1  0  0  0  0
 26 27  2  0  0  0  0
 26 28  1  0  0  0  0
 29 51  1  0  0  0  0
 29 52  1  0  0  0  0
 29 53  1  0  0  0  0
 30 31  1  0  0  0  0
 30 37  1  0  0  0  0
 30 54  1  1  0  0  0
 31 32  1  0  0  0  0
 31 55  1  0  0  0  0
 31 56  1  0  0  0  0
 32 33  1  0  0  0  0
 32 34  1  0  0  0  0
 32 57  1  6  0  0  0
 33 58  1  0  0  0  0
 33 59  1  0  0  0  0
 33 66  1  0  0  0  0
 34 35  1  0  0  0  0
 34 36  1  0  0  0  0
 34 60  1  6  0  0  0
 35 61  1  0  0  0  0
 36 37  1  0  0  0  0
 36 38  1  0  0  0  0
 36 62  1  1  0  0  0
 38 63  1  0  0  0  0
 38 64  1  0  0  0  0
 38 65  1  0  0  0  0
M  CHG  1  33   1
M  END
$$$$
