DM5
 OpenBabel04091910543D

 62 66  0  0  1  0  0  0  0  0999 V2000
   13.6466   -8.0887   23.9106 C   0  0  0  0  0  0  0  0  0  0  0  0
   13.5135   -7.4505   25.1339 C   0  0  0  0  0  0  0  0  0  0  0  0
   14.6326   -7.1705   25.9107 C   0  0  0  0  0  0  0  0  0  0  0  0
   15.8630   -7.5352   25.4266 C   0  0  0  0  0  0  0  0  0  0  0  0
   16.0245   -8.1892   24.1937 C   0  0  0  0  0  0  0  0  0  0  0  0
   17.3583   -8.5635   23.7374 C   0  0  0  0  0  0  0  0  0  0  0  0
   18.2488   -8.2623   24.5341 O   0  0  0  0  0  0  0  0  0  0  0  0
   17.5295   -9.2736   22.4139 C   0  0  0  0  0  0  0  0  0  0  0  0
   18.8508   -9.6468   22.0088 C   0  0  0  0  0  0  0  0  0  0  0  0
   19.9113   -9.3869   22.6799 O   0  0  0  0  0  0  0  0  0  0  0  0
   18.9153  -10.3698   20.7840 C   0  0  0  0  0  0  0  0  0  0  0  0
   20.2740  -10.9246   20.3616 C   0  0  1  0  0  0  0  0  0  0  0  0
   20.5792  -12.0588   21.2093 O   0  0  0  0  0  0  0  0  0  0  0  0
   20.3669  -11.4597   18.9274 C   0  0  0  0  0  0  0  0  0  0  0  0
   19.1200  -12.2430   18.5335 C   0  0  2  0  0  0  0  0  0  0  0  0
   18.9843  -13.4030   19.3844 O   0  0  0  0  0  0  0  0  0  0  0  0
   19.1884  -12.7702   17.0762 C   0  0  0  0  0  0  0  0  0  0  0  0
   19.2242  -13.9841   16.8293 O   0  0  0  0  0  0  0  0  0  0  0  0
   19.2856  -11.7847   15.9285 C   0  0  0  0  0  0  0  0  0  0  0  0
   17.8995  -11.3561   18.6611 C   0  0  0  0  0  0  0  0  0  0  0  0
   17.7601  -10.6388   19.9960 C   0  0  0  0  0  0  0  0  0  0  0  0
   16.4499  -10.2265   20.3567 C   0  0  0  0  0  0  0  0  0  0  0  0
   15.4561  -10.4712   19.5856 O   0  0  0  0  0  0  0  0  0  0  0  0
   16.3707   -9.5594   21.6184 C   0  0  0  0  0  0  0  0  0  0  0  0
   15.0109   -9.1444   22.1467 C   0  0  0  0  0  0  0  0  0  0  0  0
   13.9289   -9.3346   21.5962 O   0  0  0  0  0  0  0  0  0  0  0  0
   14.9101   -8.4647   23.4325 C   0  0  0  0  0  0  0  0  0  0  0  0
   21.7470  -11.8678   21.9826 C   0  0  1  0  0  0  0  0  0  0  0  0
   21.6808  -12.8573   23.1524 C   0  0  0  0  0  0  0  0  0  0  0  0
   21.7497  -14.2644   22.5807 C   0  0  2  0  0  0  0  0  0  0  0  0
   21.7307  -15.2724   23.6993 N   0  3  0  0  0  0  0  0  0  0  0  0
   23.0281  -14.4649   21.7451 C   0  0  2  0  0  0  0  0  0  0  0  0
   24.1925  -14.3170   22.5702 O   0  0  0  0  0  0  0  0  0  0  0  0
   23.0198  -13.4161   20.6255 C   0  0  1  0  0  0  0  0  0  0  0  0
   22.9102  -12.1039   21.1761 O   0  0  0  0  0  0  0  0  0  0  0  0
   24.2764  -13.4373   19.7604 C   0  0  0  0  0  0  0  0  0  0  0  0
   12.7664   -8.3082   23.3087 H   0  0  0  0  0  0  0  0  0  0  0  0
   12.5181   -7.1741   25.4887 H   0  0  0  0  0  0  0  0  0  0  0  0
   14.5454   -6.6674   26.8577 H   0  0  0  0  0  0  0  0  0  0  0  0
   16.7732   -7.3295   26.0298 H   0  0  0  0  0  0  0  0  0  0  0  0
   21.0304  -10.1278   20.4482 H   0  0  0  0  0  0  0  0  0  0  0  0
   21.2351  -12.1215   18.8655 H   0  0  0  0  0  0  0  0  0  0  0  0
   20.5555  -10.6402   18.2264 H   0  0  0  0  0  0  0  0  0  0  0  0
   19.8164  -13.8877   19.3212 H   0  0  0  0  0  0  0  0  0  0  0  0
   19.2851  -12.3393   14.9836 H   0  0  0  0  0  0  0  0  0  0  0  0
   20.2215  -11.2257   15.9871 H   0  0  0  0  0  0  0  0  0  0  0  0
   18.4339  -11.1032   15.8979 H   0  0  0  0  0  0  0  0  0  0  0  0
   17.0280  -11.9932   18.4748 H   0  0  0  0  0  0  0  0  0  0  0  0
   17.9140  -10.5689   17.8970 H   0  0  0  0  0  0  0  0  0  0  0  0
   21.8400  -10.8619   22.3939 H   0  0  0  0  0  0  0  0  0  0  0  0
   20.7487  -12.7347   23.7188 H   0  0  0  0  0  0  0  0  0  0  0  0
   22.5139  -12.6777   23.8427 H   0  0  0  0  0  0  0  0  0  0  0  0
   20.8620  -14.4908   21.9819 H   0  0  0  0  0  0  0  0  0  0  0  0
   21.7860  -16.2308   23.3282 H   0  0  0  0  0  0  0  0  0  0  0  0
   22.4936  -15.1112   24.3668 H   0  0  0  0  0  0  0  0  0  0  0  0
   23.0530  -15.4697   21.3088 H   0  0  0  0  0  0  0  0  0  0  0  0
   24.2983  -15.0681   23.1697 H   0  0  0  0  0  0  0  0  0  0  0  0
   22.1678  -13.6296   19.9700 H   0  0  0  0  0  0  0  0  0  0  0  0
   24.2072  -12.6795   18.9697 H   0  0  0  0  0  0  0  0  0  0  0  0
   24.4190  -14.4118   19.2842 H   0  0  0  0  0  0  0  0  0  0  0  0
   25.1702  -13.1927   20.3429 H   0  0  0  0  0  0  0  0  0  0  0  0
   20.8462  -15.1936   24.2155 H   0  0  0  0  0  0  0  0  0  0  0  0
  1  2  2  0  0  0  0
  1 27  1  0  0  0  0
  1 37  1  0  0  0  0
  2  3  1  0  0  0  0
  2 38  1  0  0  0  0
  3  4  2  0  0  0  0
  3 39  1  0  0  0  0
  4  5  1  0  0  0  0
  4 40  1  0  0  0  0
  5  6  1  0  0  0  0
  5 27  2  0  0  0  0
  6  7  2  0  0  0  0
  6  8  1  0  0  0  0
  8  9  2  0  0  0  0
  8 24  1  0  0  0  0
  9 10  1  0  0  0  0
  9 11  1  0  0  0  0
 11 12  1  0  0  0  0
 11 21  2  0  0  0  0
 12 13  1  0  0  0  0
 12 14  1  0  0  0  0
 12 41  1  1  0  0  0
 13 28  1  0  0  0  0
 14 15  1  0  0  0  0
 14 42  1  0  0  0  0
 14 43  1  0  0  0  0
 15 16  1  1  0  0  0
 15 17  1  0  0  0  0
 15 20  1  0  0  0  0
 16 44  1  0  0  0  0
 17 18  2  0  0  0  0
 17 19  1  0  0  0  0
 19 45  1  0  0  0  0
 19 46  1  0  0  0  0
 19 47  1  0  0  0  0
 20 21  1  0  0  0  0
 20 48  1  0  0  0  0
 20 49  1  0  0  0  0
 21 22  1  0  0  0  0
 22 23  1  0  0  0  0
 22 24  2  0  0  0  0
 24 25  1  0  0  0  0
 25 26  2  0  0  0  0
 25 27  1  0  0  0  0
 28 29  1  0  0  0  0
 28 35  1  0  0  0  0
 28 50  1  1  0  0  0
 29 30  1  0  0  0  0
 29 51  1  0  0  0  0
 29 52  1  0  0  0  0
 30 31  1  0  0  0  0
 30 32  1  0  0  0  0
 30 53  1  6  0  0  0
 31 54  1  0  0  0  0
 31 55  1  0  0  0  0
 31 62  1  0  0  0  0
 32 33  1  0  0  0  0
 32 34  1  0  0  0  0
 32 56  1  6  0  0  0
 33 57  1  0  0  0  0
 34 35  1  0  0  0  0
 34 36  1  0  0  0  0
 34 58  1  6  0  0  0
 36 59  1  0  0  0  0
 36 60  1  0  0  0  0
 36 61  1  0  0  0  0
M  CHG  1  31   1
M  END
$$$$
