DR7
 OpenBabel04091911453D

103105  0  0  1  0  0  0  0  0999 V2000
   20.8316   23.6445    9.2310 C   0  0  0  0  0  0  0  0  0  0  0  0
   21.0916   25.0388    9.3935 O   0  0  0  0  0  0  0  0  0  0  0  0
   21.6011   25.3677   10.6042 C   0  0  0  0  0  0  0  0  0  0  0  0
   21.8398   24.5787   11.5076 O   0  0  0  0  0  0  0  0  0  0  0  0
   21.8090   26.7047   10.6612 N   0  0  0  0  0  0  0  0  0  0  0  0
   22.3046   27.3779   11.8479 C   0  0  1  0  0  0  0  0  0  0  0  0
   23.7098   28.0013   11.6361 C   0  0  0  0  0  0  0  0  0  0  0  0
   24.0731   28.8783   12.8505 C   0  0  0  0  0  0  0  0  0  0  0  0
   23.7908   28.8373   10.3454 C   0  0  0  0  0  0  0  0  0  0  0  0
   24.7456   26.8647   11.5320 C   0  0  0  0  0  0  0  0  0  0  0  0
   21.2512   28.4217   12.2415 C   0  0  0  0  0  0  0  0  0  0  0  0
   20.9735   29.3944   11.5464 O   0  0  0  0  0  0  0  0  0  0  0  0
   20.6434   28.1412   13.4401 N   0  0  0  0  0  0  0  0  0  0  0  0
   19.5653   28.9615   13.9881 C   0  0  1  0  0  0  0  0  0  0  0  0
   18.2231   28.2083   13.8844 C   0  0  0  0  0  0  0  0  0  0  0  0
   17.8937   27.7814   12.4759 C   0  0  0  0  0  0  0  0  0  0  0  0
   18.3001   26.5188   12.0204 C   0  0  0  0  0  0  0  0  0  0  0  0
   18.0540   26.1291   10.7071 C   0  0  0  0  0  0  0  0  0  0  0  0
   17.3997   26.9952    9.8363 C   0  0  0  0  0  0  0  0  0  0  0  0
   16.9931   28.2535   10.2788 C   0  0  0  0  0  0  0  0  0  0  0  0
   17.2423   28.6497   11.5934 C   0  0  0  0  0  0  0  0  0  0  0  0
   19.8975   29.2427   15.4625 C   0  0  1  0  0  0  0  0  0  0  0  0
   20.1042   28.0001   16.1662 O   0  0  0  0  0  0  0  0  0  0  0  0
   21.1730   30.0851   15.6195 C   0  0  0  0  0  0  0  0  0  0  0  0
   20.9978   31.5177   15.3857 N   0  0  0  0  0  0  0  0  0  0  0  0
   19.9057   32.0356   16.1138 N   0  0  0  0  0  0  0  0  0  0  0  0
   18.9702   32.8186   15.4417 C   0  0  0  0  0  0  0  0  0  0  0  0
   18.9683   33.0105   14.2277 O   0  0  0  0  0  0  0  0  0  0  0  0
   17.9901   33.5177   16.3964 C   0  0  2  0  0  0  0  0  0  0  0  0
   16.5043   33.4150   15.9518 C   0  0  0  0  0  0  0  0  0  0  0  0
   15.6101   33.9561   17.0859 C   0  0  0  0  0  0  0  0  0  0  0  0
   16.1241   31.9390   15.7195 C   0  0  0  0  0  0  0  0  0  0  0  0
   16.2038   34.2270   14.6794 C   0  0  0  0  0  0  0  0  0  0  0  0
   18.4382   34.9021   16.5242 N   0  0  0  0  0  0  0  0  0  0  0  0
   18.6444   35.4933   17.7303 C   0  0  0  0  0  0  0  0  0  0  0  0
   18.5052   34.9293   18.8063 O   0  0  0  0  0  0  0  0  0  0  0  0
   19.0158   36.7863   17.5730 O   0  0  0  0  0  0  0  0  0  0  0  0
   19.2892   37.4611   18.8053 C   0  0  0  0  0  0  0  0  0  0  0  0
   22.2726   32.1783   15.7212 C   0  0  0  0  0  0  0  0  0  0  0  0
   22.1975   33.6734   15.7453 C   0  0  0  0  0  0  0  0  0  0  0  0
   22.0796   34.4194   14.5717 C   0  0  0  0  0  0  0  0  0  0  0  0
   21.9921   35.8040   14.6453 C   0  0  0  0  0  0  0  0  0  0  0  0
   22.2047   34.3198   16.9878 C   0  0  0  0  0  0  0  0  0  0  0  0
   22.1216   35.7030   17.0496 C   0  0  0  0  0  0  0  0  0  0  0  0
   22.0063   36.4698   15.8864 C   0  0  0  0  0  0  0  0  0  0  0  0
   21.8660   37.9212   15.9909 C   0  0  0  0  0  0  0  0  0  0  0  0
   21.0039   38.6380   15.1554 C   0  0  0  0  0  0  0  0  0  0  0  0
   20.9148   40.0080   15.3068 C   0  0  0  0  0  0  0  0  0  0  0  0
   21.6682   40.6421   16.2832 C   0  0  0  0  0  0  0  0  0  0  0  0
   22.4891   39.8642   17.0832 C   0  0  0  0  0  0  0  0  0  0  0  0
   22.5970   38.5254   16.9619 N   0  0  0  0  0  0  0  0  0  0  0  0
   20.4647   23.4861    8.2133 H   0  0  0  0  0  0  0  0  0  0  0  0
   20.0574   23.3174    9.9319 H   0  0  0  0  0  0  0  0  0  0  0  0
   21.7458   23.0573    9.3643 H   0  0  0  0  0  0  0  0  0  0  0  0
   21.4435   27.2677    9.9025 H   0  0  0  0  0  0  0  0  0  0  0  0
   22.3789   26.6462   12.6636 H   0  0  0  0  0  0  0  0  0  0  0  0
   25.0773   29.3025   12.7550 H   0  0  0  0  0  0  0  0  0  0  0  0
   24.0399   28.2926   13.7773 H   0  0  0  0  0  0  0  0  0  0  0  0
   23.3807   29.7192   12.9652 H   0  0  0  0  0  0  0  0  0  0  0  0
   23.5759   28.2259    9.4615 H   0  0  0  0  0  0  0  0  0  0  0  0
   24.7936   29.2554   10.2109 H   0  0  0  0  0  0  0  0  0  0  0  0
   23.0879   29.6741   10.3504 H   0  0  0  0  0  0  0  0  0  0  0  0
   24.7456   26.2452   12.4361 H   0  0  0  0  0  0  0  0  0  0  0  0
   25.7568   27.2639   11.3995 H   0  0  0  0  0  0  0  0  0  0  0  0
   24.5342   26.2105   10.6792 H   0  0  0  0  0  0  0  0  0  0  0  0
   20.8337   27.2754   13.9262 H   0  0  0  0  0  0  0  0  0  0  0  0
   19.4953   29.9026   13.4293 H   0  0  0  0  0  0  0  0  0  0  0  0
   17.4128   28.8340   14.2770 H   0  0  0  0  0  0  0  0  0  0  0  0
   18.2456   27.3127   14.5179 H   0  0  0  0  0  0  0  0  0  0  0  0
   18.8369   25.8433   12.6831 H   0  0  0  0  0  0  0  0  0  0  0  0
   18.3834   25.1540   10.3638 H   0  0  0  0  0  0  0  0  0  0  0  0
   17.2121   26.6911    8.8108 H   0  0  0  0  0  0  0  0  0  0  0  0
   16.4894   28.9319    9.5960 H   0  0  0  0  0  0  0  0  0  0  0  0
   16.9408   29.6429   11.9181 H   0  0  0  0  0  0  0  0  0  0  0  0
   19.0415   29.7250   15.9462 H   0  0  0  0  0  0  0  0  0  0  0  0
   20.3566   28.2298   17.0783 H   0  0  0  0  0  0  0  0  0  0  0  0
   21.9466   29.7209   14.9314 H   0  0  0  0  0  0  0  0  0  0  0  0
   21.5793   29.9177   16.6227 H   0  0  0  0  0  0  0  0  0  0  0  0
   19.8859   31.9636   17.1271 H   0  0  0  0  0  0  0  0  0  0  0  0
   18.0756   33.0296   17.3762 H   0  0  0  0  0  0  0  0  0  0  0  0
   14.5515   33.9057   16.8111 H   0  0  0  0  0  0  0  0  0  0  0  0
   15.8396   35.0020   17.3140 H   0  0  0  0  0  0  0  0  0  0  0  0
   15.7461   33.3740   18.0046 H   0  0  0  0  0  0  0  0  0  0  0  0
   16.7088   31.4863   14.9118 H   0  0  0  0  0  0  0  0  0  0  0  0
   15.0669   31.8434   15.4485 H   0  0  0  0  0  0  0  0  0  0  0  0
   16.2906   31.3440   16.6252 H   0  0  0  0  0  0  0  0  0  0  0  0
   16.4625   35.2835   14.8071 H   0  0  0  0  0  0  0  0  0  0  0  0
   15.1376   34.1820   14.4323 H   0  0  0  0  0  0  0  0  0  0  0  0
   16.7474   33.8496   13.8094 H   0  0  0  0  0  0  0  0  0  0  0  0
   18.6940   35.4184   15.6956 H   0  0  0  0  0  0  0  0  0  0  0  0
   19.5698   38.4928   18.5782 H   0  0  0  0  0  0  0  0  0  0  0  0
   20.1244   36.9847   19.3294 H   0  0  0  0  0  0  0  0  0  0  0  0
   18.4009   37.4786   19.4456 H   0  0  0  0  0  0  0  0  0  0  0  0
   23.0489   31.8794   15.0068 H   0  0  0  0  0  0  0  0  0  0  0  0
   22.6166   31.8419   16.7101 H   0  0  0  0  0  0  0  0  0  0  0  0
   22.0291   33.9162   13.6065 H   0  0  0  0  0  0  0  0  0  0  0  0
   21.9027   36.3651   13.7136 H   0  0  0  0  0  0  0  0  0  0  0  0
   22.2603   33.7537   17.9102 H   0  0  0  0  0  0  0  0  0  0  0  0
   22.1107   36.1822   18.0275 H   0  0  0  0  0  0  0  0  0  0  0  0
   20.3983   38.1220   14.4195 H   0  0  0  0  0  0  0  0  0  0  0  0
   20.2456   40.5812   14.6664 H   0  0  0  0  0  0  0  0  0  0  0  0
   21.6164   41.7140   16.4224 H   0  0  0  0  0  0  0  0  0  0  0  0
   23.0899   40.3102   17.8682 H   0  0  0  0  0  0  0  0  0  0  0  0
  1  2  1  0  0  0  0
  1 52  1  0  0  0  0
  1 53  1  0  0  0  0
  1 54  1  0  0  0  0
  2  3  1  0  0  0  0
  3  4  2  0  0  0  0
  3  5  1  0  0  0  0
  5  6  1  0  0  0  0
  5 55  1  0  0  0  0
  6  7  1  0  0  0  0
  6 11  1  0  0  0  0
  6 56  1  1  0  0  0
  7  8  1  0  0  0  0
  7  9  1  0  0  0  0
  7 10  1  0  0  0  0
  8 57  1  0  0  0  0
  8 58  1  0  0  0  0
  8 59  1  0  0  0  0
  9 60  1  0  0  0  0
  9 61  1  0  0  0  0
  9 62  1  0  0  0  0
 10 63  1  0  0  0  0
 10 64  1  0  0  0  0
 10 65  1  0  0  0  0
 11 12  2  0  0  0  0
 11 13  1  0  0  0  0
 13 14  1  0  0  0  0
 13 66  1  0  0  0  0
 14 15  1  0  0  0  0
 14 22  1  0  0  0  0
 14 67  1  6  0  0  0
 15 16  1  0  0  0  0
 15 68  1  0  0  0  0
 15 69  1  0  0  0  0
 16 17  2  0  0  0  0
 16 21  1  0  0  0  0
 17 18  1  0  0  0  0
 17 70  1  0  0  0  0
 18 19  2  0  0  0  0
 18 71  1  0  0  0  0
 19 20  1  0  0  0  0
 19 72  1  0  0  0  0
 20 21  2  0  0  0  0
 20 73  1  0  0  0  0
 21 74  1  0  0  0  0
 22 23  1  0  0  0  0
 22 24  1  0  0  0  0
 22 75  1  1  0  0  0
 23 76  1  0  0  0  0
 24 25  1  0  0  0  0
 24 77  1  0  0  0  0
 24 78  1  0  0  0  0
 25 26  1  0  0  0  0
 25 39  1  0  0  0  0
 26 27  1  0  0  0  0
 26 79  1  0  0  0  0
 27 28  2  0  0  0  0
 27 29  1  0  0  0  0
 29 30  1  0  0  0  0
 29 34  1  0  0  0  0
 29 80  1  1  0  0  0
 30 31  1  0  0  0  0
 30 32  1  0  0  0  0
 30 33  1  0  0  0  0
 31 81  1  0  0  0  0
 31 82  1  0  0  0  0
 31 83  1  0  0  0  0
 32 84  1  0  0  0  0
 32 85  1  0  0  0  0
 32 86  1  0  0  0  0
 33 87  1  0  0  0  0
 33 88  1  0  0  0  0
 33 89  1  0  0  0  0
 34 35  1  0  0  0  0
 34 90  1  0  0  0  0
 35 36  2  0  0  0  0
 35 37  1  0  0  0  0
 37 38  1  0  0  0  0
 38 91  1  0  0  0  0
 38 92  1  0  0  0  0
 38 93  1  0  0  0  0
 39 40  1  0  0  0  0
 39 94  1  0  0  0  0
 39 95  1  0  0  0  0
 40 41  2  0  0  0  0
 40 43  1  0  0  0  0
 41 42  1  0  0  0  0
 41 96  1  0  0  0  0
 42 45  2  0  0  0  0
 42 97  1  0  0  0  0
 43 44  2  0  0  0  0
 43 98  1  0  0  0  0
 44 45  1  0  0  0  0
 44 99  1  0  0  0  0
 45 46  1  0  0  0  0
 46 47  2  0  0  0  0
 46 51  1  0  0  0  0
 47 48  1  0  0  0  0
 47100  1  0  0  0  0
 48 49  2  0  0  0  0
 48101  1  0  0  0  0
 49 50  1  0  0  0  0
 49102  1  0  0  0  0
 50 51  2  0  0  0  0
 50103  1  0  0  0  0
M  END
$$$$
