DRL
 OpenBabel04091911103D

 22 23  0  0  0  0  0  0  0  0999 V2000
   18.8138   -4.6087   12.9554 C   0  0  0  0  0  0  0  0  0  0  0  0
   17.9190   -5.6413   12.3125 C   0  0  0  0  0  0  0  0  0  0  0  0
   18.3882   -6.8106   12.0471 N   0  0  0  0  0  0  0  0  0  0  0  0
   17.5454   -7.7312   11.4654 C   0  0  0  0  0  0  0  0  0  0  0  0
   18.2074   -9.0750   11.2217 C   0  0  0  0  0  0  0  0  0  0  0  0
   17.2548  -10.2403   10.9882 C   0  0  0  0  0  0  0  0  0  0  0  0
   16.0870   -9.8303    9.6666 S   0  0  0  0  0  0  0  0  0  0  0  0
   15.2838   -8.4295   10.5055 C   0  0  0  0  0  0  0  0  0  0  0  0
   16.2581   -7.4862   11.1483 C   0  0  0  0  0  0  0  0  0  0  0  0
   15.7436   -6.1290   11.4695 C   0  0  0  0  0  0  0  0  0  0  0  0
   14.5873   -5.7928   11.2353 O   0  0  0  0  0  0  0  0  0  0  0  0
   16.6358   -5.2754   12.0538 N   0  3  0  0  0  0  0  0  0  0  0  0
   19.8160   -5.0244   13.1107 H   0  0  0  0  0  0  0  0  0  0  0  0
   18.4087   -4.3043   13.9239 H   0  0  0  0  0  0  0  0  0  0  0  0
   18.8971   -3.7295   12.3114 H   0  0  0  0  0  0  0  0  0  0  0  0
   18.8296   -9.3242   12.0915 H   0  0  0  0  0  0  0  0  0  0  0  0
   18.8945   -8.9799   10.3700 H   0  0  0  0  0  0  0  0  0  0  0  0
   16.6915  -10.4745   11.8984 H   0  0  0  0  0  0  0  0  0  0  0  0
   17.8167  -11.1384   10.7121 H   0  0  0  0  0  0  0  0  0  0  0  0
   14.6069   -8.8417   11.2618 H   0  0  0  0  0  0  0  0  0  0  0  0
   14.6684   -7.9234    9.7547 H   0  0  0  0  0  0  0  0  0  0  0  0
   16.2983   -4.3501   12.2732 H   0  0  0  0  0  0  0  0  0  0  0  0
  1  2  1  0  0  0  0
  1 13  1  0  0  0  0
  1 14  1  0  0  0  0
  1 15  1  0  0  0  0
  2  3  2  0  0  0  0
  2 12  1  0  0  0  0
  3  4  1  0  0  0  0
  4  5  1  0  0  0  0
  4  9  2  0  0  0  0
  5  6  1  0  0  0  0
  5 16  1  0  0  0  0
  5 17  1  0  0  0  0
  6  7  1  0  0  0  0
  6 18  1  0  0  0  0
  6 19  1  0  0  0  0
  7  8  1  0  0  0  0
  8  9  1  0  0  0  0
  8 20  1  0  0  0  0
  8 21  1  0  0  0  0
  9 10  1  0  0  0  0
 10 11  2  0  0  0  0
 10 12  1  0  0  0  0
 12 22  1  0  0  0  0
M  CHG  1  12   1
M  END
$$$$
