DUA
 OpenBabel04091915403D

 63 67  0  0  1  0  0  0  0  0999 V2000
   -5.6744   25.7589   -1.0569 N   0  3  0  0  0  0  0  0  0  0  0  0
   -9.0392   28.3705    0.5812 O   0  0  0  0  0  0  0  0  0  0  0  0
   -5.1944   24.5605   -1.6098 C   0  0  0  0  0  0  0  0  0  0  0  0
   -9.2154   27.0046   -3.8425 N   0  3  0  0  0  0  0  0  0  0  0  0
   -5.8657   23.5381   -1.6485 O   0  0  0  0  0  0  0  0  0  0  0  0
   -3.9574   24.5667   -2.1568 N   0  3  0  0  0  0  0  0  0  0  0  0
   -3.1395   25.6736   -2.1600 C   0  0  0  0  0  0  0  0  0  0  0  0
   -2.0609   25.6546   -2.6695 O   0  0  0  0  0  0  0  0  0  0  0  0
   -3.6897   26.8854   -1.5292 C   0  0  0  0  0  0  0  0  0  0  0  0
   -4.8803   26.8899   -1.0180 C   0  0  0  0  0  0  0  0  0  0  0  0
   -6.9949   25.6618   -0.4724 C   0  0  1  0  0  0  0  0  0  0  0  0
   -8.7648   27.4092   -5.2632 C   0  0  0  0  0  0  0  0  0  0  0  0
   -9.5652   26.3970   -6.1259 C   0  0  0  0  0  0  0  0  0  0  0  0
  -10.8512   25.9816   -5.7428 C   0  0  0  0  0  0  0  0  0  0  0  0
   -7.4216   26.5499    0.6802 C   0  0  0  0  0  0  0  0  0  0  0  0
  -11.6100   25.1157   -6.5370 C   0  0  0  0  0  0  0  0  0  0  0  0
  -11.1272   24.6599   -7.7459 C   0  0  0  0  0  0  0  0  0  0  0  0
   -9.8608   25.0705   -8.1472 C   0  0  0  0  0  0  0  0  0  0  0  0
   -9.0971   25.9276   -7.3505 C   0  0  0  0  0  0  0  0  0  0  0  0
   -7.2457   27.2170   -5.3462 C   0  0  0  0  0  0  0  0  0  0  0  0
   -6.3025   28.2151   -5.6684 C   0  0  0  0  0  0  0  0  0  0  0  0
   -4.9372   27.9241   -5.6983 C   0  0  0  0  0  0  0  0  0  0  0  0
   -4.5066   26.6305   -5.4291 C   0  0  0  0  0  0  0  0  0  0  0  0
   -5.4253   25.6404   -5.1134 C   0  0  0  0  0  0  0  0  0  0  0  0
   -6.7764   25.9316   -5.0565 C   0  0  0  0  0  0  0  0  0  0  0  0
   -8.1242   27.6080   -0.1505 C   0  0  1  0  0  0  0  0  0  0  0  0
   -9.2108   28.8091   -5.7072 C   0  0  0  0  0  0  0  0  0  0  0  0
   -9.3942   29.8366   -4.8031 C   0  0  0  0  0  0  0  0  0  0  0  0
   -9.8501   31.0950   -5.2056 C   0  0  0  0  0  0  0  0  0  0  0  0
  -10.1157   31.3581   -6.5347 C   0  0  0  0  0  0  0  0  0  0  0  0
   -9.9099   30.3689   -7.4830 C   0  0  0  0  0  0  0  0  0  0  0  0
   -9.4333   29.1219   -7.0650 C   0  0  0  0  0  0  0  0  0  0  0  0
   -8.8036   26.8824   -1.3271 C   0  0  2  0  0  0  0  0  0  0  0  0
   -8.0413   25.6935   -1.4987 O   0  0  0  0  0  0  0  0  0  0  0  0
   -8.7330   27.6887   -2.6347 C   0  0  0  0  0  0  0  0  0  0  0  0
   -9.4436   29.0180   -0.0183 H   0  0  0  0  0  0  0  0  0  0  0  0
  -10.2176   27.1213   -3.8902 H   0  0  0  0  0  0  0  0  0  0  0  0
   -3.5883   23.7276   -2.5988 H   0  0  0  0  0  0  0  0  0  0  0  0
   -3.0331   27.7481   -1.5456 H   0  0  0  0  0  0  0  0  0  0  0  0
   -5.3145   27.7777   -0.5542 H   0  0  0  0  0  0  0  0  0  0  0  0
   -7.0367   24.7003   -0.0789 H   0  0  0  0  0  0  0  0  0  0  0  0
  -11.3162   26.2980   -4.8186 H   0  0  0  0  0  0  0  0  0  0  0  0
   -6.5830   26.8947    1.3100 H   0  0  0  0  0  0  0  0  0  0  0  0
   -8.0803   25.9560    1.3497 H   0  0  0  0  0  0  0  0  0  0  0  0
  -12.6063   24.8467   -6.2097 H   0  0  0  0  0  0  0  0  0  0  0  0
  -11.7234   23.9839   -8.3650 H   0  0  0  0  0  0  0  0  0  0  0  0
   -9.4445   24.7235   -9.0907 H   0  0  0  0  0  0  0  0  0  0  0  0
   -8.1274   26.2576   -7.7143 H   0  0  0  0  0  0  0  0  0  0  0  0
   -6.6096   29.2358   -5.8973 H   0  0  0  0  0  0  0  0  0  0  0  0
   -4.2047   28.6969   -5.9293 H   0  0  0  0  0  0  0  0  0  0  0  0
   -3.4459   26.3892   -5.4655 H   0  0  0  0  0  0  0  0  0  0  0  0
   -5.0943   24.6323   -4.9036 H   0  0  0  0  0  0  0  0  0  0  0  0
   -7.4781   25.1494   -4.7863 H   0  0  0  0  0  0  0  0  0  0  0  0
   -7.3510   28.2633   -0.5411 H   0  0  0  0  0  0  0  0  0  0  0  0
   -9.1647   29.7062   -3.7753 H   0  0  0  0  0  0  0  0  0  0  0  0
   -9.9941   31.8553   -4.4467 H   0  0  0  0  0  0  0  0  0  0  0  0
  -10.4751   32.3437   -6.8289 H   0  0  0  0  0  0  0  0  0  0  0  0
  -10.1188   30.5649   -8.5366 H   0  0  0  0  0  0  0  0  0  0  0  0
   -9.2356   28.3830   -7.8377 H   0  0  0  0  0  0  0  0  0  0  0  0
   -9.8628   26.6731   -1.1012 H   0  0  0  0  0  0  0  0  0  0  0  0
   -9.3810   28.5440   -2.5118 H   0  0  0  0  0  0  0  0  0  0  0  0
   -7.7090   27.9676   -2.8517 H   0  0  0  0  0  0  0  0  0  0  0  0
   -9.0263   25.9955   -3.7925 H   0  0  0  0  0  0  0  0  0  0  0  0
  1  3  1  0  0  0  0
  1 10  1  0  0  0  0
  1 11  1  0  0  0  0
  2 26  1  0  0  0  0
  2 36  1  0  0  0  0
  3  5  2  0  0  0  0
  3  6  1  0  0  0  0
  4 12  1  0  0  0  0
  4 35  1  0  0  0  0
  4 37  1  0  0  0  0
  4 63  1  0  0  0  0
  6  7  1  0  0  0  0
  6 38  1  0  0  0  0
  7  8  2  0  0  0  0
  7  9  1  0  0  0  0
  9 10  2  0  0  0  0
  9 39  1  0  0  0  0
 10 40  1  0  0  0  0
 11 15  1  0  0  0  0
 11 34  1  0  0  0  0
 11 41  1  1  0  0  0
 12 13  1  0  0  0  0
 12 20  1  0  0  0  0
 12 27  1  0  0  0  0
 13 14  2  0  0  0  0
 13 19  1  0  0  0  0
 14 16  1  0  0  0  0
 14 42  1  0  0  0  0
 15 26  1  0  0  0  0
 15 43  1  0  0  0  0
 15 44  1  0  0  0  0
 16 17  2  0  0  0  0
 16 45  1  0  0  0  0
 17 18  1  0  0  0  0
 17 46  1  0  0  0  0
 18 19  2  0  0  0  0
 18 47  1  0  0  0  0
 19 48  1  0  0  0  0
 20 21  2  0  0  0  0
 20 25  1  0  0  0  0
 21 22  1  0  0  0  0
 21 49  1  0  0  0  0
 22 23  2  0  0  0  0
 22 50  1  0  0  0  0
 23 24  1  0  0  0  0
 23 51  1  0  0  0  0
 24 25  2  0  0  0  0
 24 52  1  0  0  0  0
 25 53  1  0  0  0  0
 26 33  1  0  0  0  0
 26 54  1  6  0  0  0
 27 28  2  0  0  0  0
 27 32  1  0  0  0  0
 28 29  1  0  0  0  0
 28 55  1  0  0  0  0
 29 30  2  0  0  0  0
 29 56  1  0  0  0  0
 30 31  1  0  0  0  0
 30 57  1  0  0  0  0
 31 32  2  0  0  0  0
 31 58  1  0  0  0  0
 32 59  1  0  0  0  0
 33 34  1  0  0  0  0
 33 35  1  0  0  0  0
 33 60  1  1  0  0  0
 35 61  1  0  0  0  0
 35 62  1  0  0  0  0
M  CHG  3   1   1   4   1   6   1
M  END
$$$$
