DWH
 OpenBabel04091913513D

 37 38  0  0  0  0  0  0  0  0999 V2000
   -5.2423    2.6772   15.7397 C   0  0  0  0  0  0  0  0  0  0  0  0
   -5.3928   -0.0184   16.0712 N   0  0  0  0  0  0  0  0  0  0  0  0
   -7.3450    1.4759   16.6213 O   0  0  0  0  0  0  0  0  0  0  0  0
   -5.9137    1.4113   16.7698 S   0  0  0  0  0  0  0  0  0  0  0  0
   -6.0865    3.7104   15.3066 C   0  0  0  0  0  0  0  0  0  0  0  0
   -5.2972    1.5093   18.0788 O   0  0  0  0  0  0  0  0  0  0  0  0
   -5.5588    4.7524   14.5394 C   0  0  0  0  0  0  0  0  0  0  0  0
   -4.1865    4.7625   14.2397 C   0  0  0  0  0  0  0  0  0  0  0  0
   -3.3683    3.6982   14.6458 C   0  0  0  0  0  0  0  0  0  0  0  0
   -3.8845    2.6588   15.4079 C   0  0  0  0  0  0  0  0  0  0  0  0
   -3.5501    5.7640   13.4928 N   0  0  0  0  0  0  0  0  0  0  0  0
   -4.1079    6.6669   12.5976 C   0  0  0  0  0  0  0  0  0  0  0  0
   -3.2603    7.5810   12.1225 N   0  0  0  0  0  0  0  0  0  0  0  0
   -3.7517    8.4957   11.2898 C   0  0  0  0  0  0  0  0  0  0  0  0
   -2.9107    9.5111   10.8630 N   0  0  0  0  0  0  0  0  0  0  0  0
   -5.0313    8.5158   10.9253 N   0  0  0  0  0  0  0  0  0  0  0  0
   -5.7876    7.5463   11.4377 C   0  0  0  0  0  0  0  0  0  0  0  0
   -7.4526    7.5412   10.9347 Cl  0  0  0  0  0  0  0  0  0  0  0  0
   -5.4028    6.6027   12.2790 N   0  0  0  0  0  0  0  0  0  0  0  0
   -1.4647    9.3586   11.0304 C   0  0  0  0  0  0  0  0  0  0  0  0
   -0.9445    8.5251    9.8626 C   0  0  0  0  0  0  0  0  0  0  0  0
    0.7877    7.9511    8.4668 C   0  0  0  0  0  0  0  0  0  0  0  0
    0.3672    8.7338    9.6016 O   0  0  0  0  0  0  0  0  0  0  0  0
   -1.6491    7.7813    9.2385 O   0  0  0  0  0  0  0  0  0  0  0  0
   -5.6645   -0.9073   16.4892 H   0  0  0  0  0  0  0  0  0  0  0  0
   -4.8154    0.0087   15.2391 H   0  0  0  0  0  0  0  0  0  0  0  0
   -7.1502    3.7313   15.5595 H   0  0  0  0  0  0  0  0  0  0  0  0
   -6.2302    5.5609   14.2291 H   0  0  0  0  0  0  0  0  0  0  0  0
   -2.3151    3.7343   14.3585 H   0  0  0  0  0  0  0  0  0  0  0  0
   -3.2367    1.8581   15.7483 H   0  0  0  0  0  0  0  0  0  0  0  0
   -2.5498    5.8742   13.6577 H   0  0  0  0  0  0  0  0  0  0  0  0
   -3.2523   10.2894   10.3145 H   0  0  0  0  0  0  0  0  0  0  0  0
   -1.2449    8.8472   11.9719 H   0  0  0  0  0  0  0  0  0  0  0  0
   -0.9752   10.3458   11.0451 H   0  0  0  0  0  0  0  0  0  0  0  0
    1.8424    8.1793    8.3215 H   0  0  0  0  0  0  0  0  0  0  0  0
    0.2218    8.2329    7.5710 H   0  0  0  0  0  0  0  0  0  0  0  0
    0.6654    6.8819    8.6739 H   0  0  0  0  0  0  0  0  0  0  0  0
  1  4  1  0  0  0  0
  1  5  2  0  0  0  0
  1 10  1  0  0  0  0
  2  4  1  0  0  0  0
  2 25  1  0  0  0  0
  2 26  1  0  0  0  0
  3  4  2  0  0  0  0
  4  6  2  0  0  0  0
  5  7  1  0  0  0  0
  5 27  1  0  0  0  0
  7  8  2  0  0  0  0
  7 28  1  0  0  0  0
  8  9  1  0  0  0  0
  8 11  1  0  0  0  0
  9 10  2  0  0  0  0
  9 29  1  0  0  0  0
 10 30  1  0  0  0  0
 11 12  1  0  0  0  0
 11 31  1  0  0  0  0
 12 13  2  0  0  0  0
 12 19  1  0  0  0  0
 13 14  1  0  0  0  0
 14 15  1  0  0  0  0
 14 16  2  0  0  0  0
 15 20  1  0  0  0  0
 15 32  1  0  0  0  0
 16 17  1  0  0  0  0
 17 18  1  0  0  0  0
 17 19  2  0  0  0  0
 20 21  1  0  0  0  0
 20 33  1  0  0  0  0
 20 34  1  0  0  0  0
 21 23  1  0  0  0  0
 21 24  2  0  0  0  0
 22 23  1  0  0  0  0
 22 35  1  0  0  0  0
 22 36  1  0  0  0  0
 22 37  1  0  0  0  0
M  END
$$$$
