DYH
 OpenBabel04091912413D

 41 42  0  0  1  0  0  0  0  0999 V2000
  -12.8914   56.4835   50.2245 C   0  0  0  0  0  0  0  0  0  0  0  0
  -13.8093   55.3661   49.9304 N   0  3  0  0  0  0  0  0  0  0  0  0
  -14.9914   55.2489   50.8827 C   0  0  2  0  0  0  0  0  0  0  0  0
  -15.7470   53.9648   50.5349 C   0  0  2  0  0  0  0  0  0  0  0  0
  -15.8878   53.8873   49.1159 O   0  0  0  0  0  0  0  0  0  0  0  0
  -17.0633   53.9459   51.3011 C   0  0  0  0  0  0  0  0  0  0  0  0
  -17.8546   55.0629   50.9322 O   0  0  0  0  0  0  0  0  0  0  0  0
  -17.2824   56.3184   51.2671 C   0  0  2  0  0  0  0  0  0  0  0  0
  -18.0202   57.4010   50.5182 C   0  0  0  0  0  0  0  0  0  0  0  0
  -15.8654   56.4996   50.7537 C   0  0  2  0  0  0  0  0  0  0  0  0
  -15.9340   56.9264   49.3770 O   0  0  0  0  0  0  0  0  0  0  0  0
  -17.2840   57.4820   49.1738 C   0  0  1  0  0  0  0  0  0  0  0  0
  -18.1001   56.6380   48.1435 C   0  0  0  0  0  0  0  0  0  0  0  0
  -17.5520   55.5006   47.8992 O   0  0  0  0  0  0  0  0  0  0  0  0
  -19.1020   57.1889   47.6454 O   0  0  0  0  0  0  0  0  0  0  0  0
  -17.1178   58.9291   48.7269 C   0  0  0  0  0  0  0  0  0  0  0  0
  -16.5456   59.1069   47.3202 C   0  0  1  0  0  0  0  0  0  0  0  0
  -16.7609   60.5850   46.8824 C   0  0  0  0  0  0  0  0  0  0  0  0
  -17.9123   61.0646   46.9514 O   0  0  0  0  0  0  0  0  0  0  0  0
  -15.6442   61.1146   46.5682 O   0  0  0  0  0  0  0  0  0  0  0  0
  -15.0522   58.7787   47.3371 N   0  3  0  0  0  0  0  0  0  0  0  0
  -12.0927   56.4774   49.4825 H   0  0  0  0  0  0  0  0  0  0  0  0
  -12.4935   56.3353   51.2317 H   0  0  0  0  0  0  0  0  0  0  0  0
  -13.4413   57.4255   50.1657 H   0  0  0  0  0  0  0  0  0  0  0  0
  -14.2691   55.4547   49.0011 H   0  0  0  0  0  0  0  0  0  0  0  0
  -14.5849   55.1699   51.8973 H   0  0  0  0  0  0  0  0  0  0  0  0
  -15.1454   53.0971   50.8313 H   0  0  0  0  0  0  0  0  0  0  0  0
  -16.6481   54.4678   48.8055 H   0  0  0  0  0  0  0  0  0  0  0  0
  -16.8822   53.9788   52.3836 H   0  0  0  0  0  0  0  0  0  0  0  0
  -17.6317   53.0402   51.0769 H   0  0  0  0  0  0  0  0  0  0  0  0
  -17.3441   56.4477   52.3528 H   0  0  0  0  0  0  0  0  0  0  0  0
  -17.9166   58.3493   51.0597 H   0  0  0  0  0  0  0  0  0  0  0  0
  -19.0899   57.1877   50.4133 H   0  0  0  0  0  0  0  0  0  0  0  0
  -15.3957   57.3361   51.2825 H   0  0  0  0  0  0  0  0  0  0  0  0
  -16.4558   59.4367   49.4433 H   0  0  0  0  0  0  0  0  0  0  0  0
  -18.0918   59.4240   48.7961 H   0  0  0  0  0  0  0  0  0  0  0  0
  -16.9686   58.4334   46.5744 H   0  0  0  0  0  0  0  0  0  0  0  0
  -14.7278   59.0209   46.3902 H   0  0  0  0  0  0  0  0  0  0  0  0
  -14.5989   59.4903   47.9207 H   0  0  0  0  0  0  0  0  0  0  0  0
  -13.3214   54.4632   49.8694 H   0  0  0  0  0  0  0  0  0  0  0  0
  -14.8892   57.8104   47.5997 H   0  0  0  0  0  0  0  0  0  0  0  0
  1  2  1  0  0  0  0
  1 22  1  0  0  0  0
  1 23  1  0  0  0  0
  1 24  1  0  0  0  0
  2  3  1  0  0  0  0
  2 25  1  0  0  0  0
  2 40  1  0  0  0  0
  3  4  1  0  0  0  0
  3 10  1  0  0  0  0
  3 26  1  1  0  0  0
  4  5  1  0  0  0  0
  4  6  1  0  0  0  0
  4 27  1  1  0  0  0
  5 28  1  0  0  0  0
  6  7  1  0  0  0  0
  6 29  1  0  0  0  0
  6 30  1  0  0  0  0
  7  8  1  0  0  0  0
  8  9  1  0  0  0  0
  8 10  1  0  0  0  0
  8 31  1  1  0  0  0
  9 12  1  0  0  0  0
  9 32  1  0  0  0  0
  9 33  1  0  0  0  0
 10 11  1  0  0  0  0
 10 34  1  1  0  0  0
 11 12  1  0  0  0  0
 12 13  1  6  0  0  0
 12 16  1  0  0  0  0
 13 14  2  0  0  0  0
 13 15  1  0  0  0  0
 16 17  1  0  0  0  0
 16 35  1  0  0  0  0
 16 36  1  0  0  0  0
 17 18  1  0  0  0  0
 17 21  1  0  0  0  0
 17 37  1  6  0  0  0
 18 19  2  0  0  0  0
 18 20  1  0  0  0  0
 21 38  1  0  0  0  0
 21 39  1  0  0  0  0
 21 41  1  0  0  0  0
M  CHG  2   2   1  21   1
M  END
$$$$
