DYH
 OpenBabel04091912343D

 41 42  0  0  1  0  0  0  0  0999 V2000
   -8.9991   11.3674   19.7118 C   0  0  0  0  0  0  0  0  0  0  0  0
  -10.0012   12.4457   19.8001 N   0  3  0  0  0  0  0  0  0  0  0  0
  -10.0578   13.2507   21.0915 C   0  0  2  0  0  0  0  0  0  0  0  0
  -11.2017   14.2483   20.9761 C   0  0  2  0  0  0  0  0  0  0  0  0
  -11.1341   14.8951   19.7041 O   0  0  0  0  0  0  0  0  0  0  0  0
  -11.1316   15.2333   22.1460 C   0  0  0  0  0  0  0  0  0  0  0  0
   -9.9043   15.9420   22.1028 O   0  0  0  0  0  0  0  0  0  0  0  0
   -8.7589   15.1191   22.2697 C   0  0  2  0  0  0  0  0  0  0  0  0
   -7.5392   15.8984   21.8400 C   0  0  0  0  0  0  0  0  0  0  0  0
   -8.7173   13.9413   21.3082 C   0  0  2  0  0  0  0  0  0  0  0  0
   -8.2162   14.4217   20.0436 O   0  0  0  0  0  0  0  0  0  0  0  0
   -7.4538   15.6438   20.3264 C   0  0  1  0  0  0  0  0  0  0  0  0
   -8.0740   16.8944   19.6054 C   0  0  0  0  0  0  0  0  0  0  0  0
   -9.2493   16.6616   19.1470 O   0  0  0  0  0  0  0  0  0  0  0  0
   -7.3724   17.9161   19.5114 O   0  0  0  0  0  0  0  0  0  0  0  0
   -6.0165   15.3659   19.9003 C   0  0  0  0  0  0  0  0  0  0  0  0
   -5.7845   15.2871   18.3915 C   0  0  1  0  0  0  0  0  0  0  0  0
   -4.2592   15.4756   18.1074 C   0  0  0  0  0  0  0  0  0  0  0  0
   -3.8087   14.4903   17.4640 O   0  0  0  0  0  0  0  0  0  0  0  0
   -3.7144   16.4840   18.5832 O   0  0  0  0  0  0  0  0  0  0  0  0
   -6.2749   13.9538   17.8728 N   0  3  0  0  0  0  0  0  0  0  0  0
   -9.0921   10.9162   18.7224 H   0  0  0  0  0  0  0  0  0  0  0  0
   -9.2140   10.6316   20.4930 H   0  0  0  0  0  0  0  0  0  0  0  0
   -7.9971   11.7874   19.8309 H   0  0  0  0  0  0  0  0  0  0  0  0
   -9.8341   13.1690   19.0713 H   0  0  0  0  0  0  0  0  0  0  0  0
  -10.2660   12.5425   21.9051 H   0  0  0  0  0  0  0  0  0  0  0  0
  -12.1623   13.7218   21.0140 H   0  0  0  0  0  0  0  0  0  0  0  0
  -10.3710   15.5460   19.6803 H   0  0  0  0  0  0  0  0  0  0  0  0
  -11.1970   14.6985   23.1024 H   0  0  0  0  0  0  0  0  0  0  0  0
  -11.9517   15.9534   22.0905 H   0  0  0  0  0  0  0  0  0  0  0  0
   -8.7096   14.8021   23.3181 H   0  0  0  0  0  0  0  0  0  0  0  0
   -6.6503   15.4985   22.3398 H   0  0  0  0  0  0  0  0  0  0  0  0
   -7.6150   16.9639   22.0881 H   0  0  0  0  0  0  0  0  0  0  0  0
   -7.9854   13.2085   21.6629 H   0  0  0  0  0  0  0  0  0  0  0  0
   -5.6956   14.4235   20.3671 H   0  0  0  0  0  0  0  0  0  0  0  0
   -5.3860   16.1561   20.3282 H   0  0  0  0  0  0  0  0  0  0  0  0
   -6.3538   16.0303   17.8395 H   0  0  0  0  0  0  0  0  0  0  0  0
   -6.0140   13.9413   16.8830 H   0  0  0  0  0  0  0  0  0  0  0  0
   -5.6589   13.2272   18.2866 H   0  0  0  0  0  0  0  0  0  0  0  0
  -10.9436   12.0881   19.5987 H   0  0  0  0  0  0  0  0  0  0  0  0
   -7.2697   13.8487   18.0463 H   0  0  0  0  0  0  0  0  0  0  0  0
  1  2  1  0  0  0  0
  1 22  1  0  0  0  0
  1 23  1  0  0  0  0
  1 24  1  0  0  0  0
  2  3  1  0  0  0  0
  2 25  1  0  0  0  0
  2 40  1  0  0  0  0
  3  4  1  0  0  0  0
  3 10  1  0  0  0  0
  3 26  1  1  0  0  0
  4  5  1  0  0  0  0
  4  6  1  0  0  0  0
  4 27  1  1  0  0  0
  5 28  1  0  0  0  0
  6  7  1  0  0  0  0
  6 29  1  0  0  0  0
  6 30  1  0  0  0  0
  7  8  1  0  0  0  0
  8  9  1  0  0  0  0
  8 10  1  0  0  0  0
  8 31  1  1  0  0  0
  9 12  1  0  0  0  0
  9 32  1  0  0  0  0
  9 33  1  0  0  0  0
 10 11  1  0  0  0  0
 10 34  1  1  0  0  0
 11 12  1  0  0  0  0
 12 13  1  6  0  0  0
 12 16  1  0  0  0  0
 13 14  2  0  0  0  0
 13 15  1  0  0  0  0
 16 17  1  0  0  0  0
 16 35  1  0  0  0  0
 16 36  1  0  0  0  0
 17 18  1  0  0  0  0
 17 21  1  0  0  0  0
 17 37  1  6  0  0  0
 18 19  2  0  0  0  0
 18 20  1  0  0  0  0
 21 38  1  0  0  0  0
 21 39  1  0  0  0  0
 21 41  1  0  0  0  0
M  CHG  2   2   1  21   1
M  END
$$$$
