E1S
 OpenBabel04091915473D

 47 48  0  0  1  0  0  0  0  0999 V2000
   -4.9693   10.5344  -13.6156 C   0  0  0  0  0  0  0  0  0  0  0  0
   -4.1194    9.1511  -15.4746 N   0  0  0  0  0  0  0  0  0  0  0  0
   -4.7861    9.1829  -14.2764 C   0  0  0  0  0  0  0  0  0  0  0  0
   -5.1874    8.1519  -13.7174 O   0  0  0  0  0  0  0  0  0  0  0  0
   -4.5449    8.0438  -17.6715 C   0  0  0  0  0  0  0  0  0  0  0  0
   -1.7171    7.7490  -15.2158 N   0  0  0  0  0  0  0  0  0  0  0  0
   -6.0566    8.1537  -17.5880 C   0  0  0  0  0  0  0  0  0  0  0  0
   -6.6076    9.5756  -17.6744 C   0  0  0  0  0  0  0  0  0  0  0  0
   -1.9084    7.0669  -17.3383 O   0  0  0  0  0  0  0  0  0  0  0  0
   -7.7707    9.7176  -17.2034 O   0  0  0  0  0  0  0  0  0  0  0  0
   -5.8362   10.4419  -18.1719 O   0  0  0  0  0  0  0  0  0  0  0  0
   -2.4484    7.5787  -16.3660 C   0  0  0  0  0  0  0  0  0  0  0  0
   -6.4135   11.0008  -13.7873 C   0  0  0  0  0  0  0  0  0  0  0  0
   -6.6489   12.3828  -13.2149 C   0  0  0  0  0  0  0  0  0  0  0  0
   -7.5612   12.5749  -12.1708 C   0  0  0  0  0  0  0  0  0  0  0  0
   -7.7645   13.8564  -11.6292 C   0  0  0  0  0  0  0  0  0  0  0  0
   -5.9611   13.4995  -13.7174 C   0  0  0  0  0  0  0  0  0  0  0  0
   -7.3187   16.3499  -11.5868 C   0  0  0  0  0  0  0  0  0  0  0  0
   -7.0065   17.5877  -12.1308 C   0  0  0  0  0  0  0  0  0  0  0  0
   -7.3893   18.6877  -11.2995 C   0  0  0  0  0  0  0  0  0  0  0  0
   -8.0890   16.5724  -10.0603 S   0  0  0  0  0  0  0  0  0  0  0  0
   -8.5085   19.0990   -9.0072 C   0  0  0  0  0  0  0  0  0  0  0  0
   -7.9908   18.2710  -10.1334 C   0  0  0  0  0  0  0  0  0  0  0  0
   -7.0819   14.9847  -12.1278 C   0  0  0  0  0  0  0  0  0  0  0  0
   -6.1667   14.7743  -13.1740 C   0  0  0  0  0  0  0  0  0  0  0  0
   -3.9481    7.9191  -16.2676 C   0  0  1  0  0  0  0  0  0  0  0  0
   -4.2579   11.2578  -14.0213 H   0  0  0  0  0  0  0  0  0  0  0  0
   -4.7344   10.4355  -12.5450 H   0  0  0  0  0  0  0  0  0  0  0  0
   -3.8497   10.0108  -15.9450 H   0  0  0  0  0  0  0  0  0  0  0  0
   -4.0827    8.8926  -18.1953 H   0  0  0  0  0  0  0  0  0  0  0  0
   -4.2815    7.1576  -18.2733 H   0  0  0  0  0  0  0  0  0  0  0  0
   -2.1265    8.1590  -14.3844 H   0  0  0  0  0  0  0  0  0  0  0  0
   -0.7327    7.5768  -15.2625 H   0  0  0  0  0  0  0  0  0  0  0  0
   -6.3942    7.7186  -16.6390 H   0  0  0  0  0  0  0  0  0  0  0  0
   -6.5093    7.5626  -18.3920 H   0  0  0  0  0  0  0  0  0  0  0  0
   -7.0842   10.2757  -13.3039 H   0  0  0  0  0  0  0  0  0  0  0  0
   -6.6759   10.9981  -14.8494 H   0  0  0  0  0  0  0  0  0  0  0  0
   -8.1158   11.7241  -11.7750 H   0  0  0  0  0  0  0  0  0  0  0  0
   -8.4681   13.9607  -10.8107 H   0  0  0  0  0  0  0  0  0  0  0  0
   -5.2604   13.3810  -14.5437 H   0  0  0  0  0  0  0  0  0  0  0  0
   -6.5234   17.7142  -13.0936 H   0  0  0  0  0  0  0  0  0  0  0  0
   -7.2249   19.7307  -11.5441 H   0  0  0  0  0  0  0  0  0  0  0  0
   -8.9545   18.4861   -8.2165 H   0  0  0  0  0  0  0  0  0  0  0  0
   -9.2730   19.7993   -9.3591 H   0  0  0  0  0  0  0  0  0  0  0  0
   -7.6923   19.6766   -8.5611 H   0  0  0  0  0  0  0  0  0  0  0  0
   -5.5843   15.5968  -13.5811 H   0  0  0  0  0  0  0  0  0  0  0  0
   -4.4219    7.0698  -15.7540 H   0  0  0  0  0  0  0  0  0  0  0  0
  1  3  1  0  0  0  0
  1 13  1  0  0  0  0
  1 27  1  0  0  0  0
  1 28  1  0  0  0  0
  2  3  1  0  0  0  0
  2 26  1  0  0  0  0
  2 29  1  0  0  0  0
  3  4  2  0  0  0  0
  5  7  1  0  0  0  0
  5 26  1  0  0  0  0
  5 30  1  0  0  0  0
  5 31  1  0  0  0  0
  6 12  1  0  0  0  0
  6 32  1  0  0  0  0
  6 33  1  0  0  0  0
  7  8  1  0  0  0  0
  7 34  1  0  0  0  0
  7 35  1  0  0  0  0
  8 10  2  0  0  0  0
  8 11  1  0  0  0  0
  9 12  2  0  0  0  0
 12 26  1  0  0  0  0
 13 14  1  0  0  0  0
 13 36  1  0  0  0  0
 13 37  1  0  0  0  0
 14 15  2  0  0  0  0
 14 17  1  0  0  0  0
 15 16  1  0  0  0  0
 15 38  1  0  0  0  0
 16 24  2  0  0  0  0
 16 39  1  0  0  0  0
 17 25  2  0  0  0  0
 17 40  1  0  0  0  0
 18 19  2  0  0  0  0
 18 21  1  0  0  0  0
 18 24  1  0  0  0  0
 19 20  1  0  0  0  0
 19 41  1  0  0  0  0
 20 23  2  0  0  0  0
 20 42  1  0  0  0  0
 21 23  1  0  0  0  0
 22 23  1  0  0  0  0
 22 43  1  0  0  0  0
 22 44  1  0  0  0  0
 22 45  1  0  0  0  0
 24 25  1  0  0  0  0
 25 46  1  0  0  0  0
 26 47  1  1  0  0  0
M  END
$$$$
