E27
 OpenBabel04091913553D

 41 44  0  0  0  0  0  0  0  0999 V2000
   -2.2348    5.5046   11.5336 N   0  3  0  0  0  0  0  0  0  0  0  0
   -1.9425    4.8321   10.3899 C   0  0  0  0  0  0  0  0  0  0  0  0
   -0.8266    5.2662    9.8529 N   0  0  0  0  0  0  0  0  0  0  0  0
   -0.3588    6.2458   10.7152 C   0  0  0  0  0  0  0  0  0  0  0  0
    0.7870    7.0373   10.6880 C   0  0  0  0  0  0  0  0  0  0  0  0
    1.0220    7.9451   11.6792 N   0  0  0  0  0  0  0  0  0  0  0  0
    0.1532    8.0891   12.7052 C   0  0  0  0  0  0  0  0  0  0  0  0
   -1.0285    7.3317   12.8063 C   0  0  0  0  0  0  0  0  0  0  0  0
   -1.2409    6.4071   11.7749 C   0  0  0  0  0  0  0  0  0  0  0  0
    0.3798    9.0032   13.7239 C   0  0  0  0  0  0  0  0  0  0  0  0
   -0.5194    9.1601   14.7953 C   0  0  0  0  0  0  0  0  0  0  0  0
   -1.6781    8.3943   14.8639 C   0  0  0  0  0  0  0  0  0  0  0  0
   -1.9480    7.4659   13.8675 C   0  0  0  0  0  0  0  0  0  0  0  0
   -2.9613    3.5856    9.7617 S   0  0  0  0  0  0  0  0  0  0  0  0
   -4.3434    3.4411   10.9313 C   0  0  0  0  0  0  0  0  0  0  0  0
   -3.9784    2.6630   12.1942 C   0  0  0  0  0  0  0  0  0  0  0  0
   -3.1801    1.7298   12.2064 O   0  0  0  0  0  0  0  0  0  0  0  0
   -4.6910    2.9666   13.4791 C   0  0  0  0  0  0  0  0  0  0  0  0
   -4.9143    1.9148   14.3869 C   0  0  0  0  0  0  0  0  0  0  0  0
   -5.5693    2.1451   15.6125 C   0  0  0  0  0  0  0  0  0  0  0  0
   -5.9671    3.4420   15.9493 C   0  0  0  0  0  0  0  0  0  0  0  0
   -5.7283    4.4875   15.0512 C   0  0  0  0  0  0  0  0  0  0  0  0
   -5.1066    4.2529   13.8207 C   0  0  0  0  0  0  0  0  0  0  0  0
   -5.9555    0.8283   16.7308 S   0  0  0  0  0  0  0  0  0  0  0  0
   -7.3872    0.6501   16.6965 O   0  0  0  0  0  0  0  0  0  0  0  0
   -6.7700    3.8629   17.4192 Cl  0  0  0  0  0  0  0  0  0  0  0  0
   -5.2255    1.0556   17.9587 O   0  0  0  0  0  0  0  0  0  0  0  0
   -5.3066   -0.5667   16.1015 N   0  0  0  0  0  0  0  0  0  0  0  0
   -3.0332    5.3718   12.1189 H   0  0  0  0  0  0  0  0  0  0  0  0
    1.5279    6.9697    9.8996 H   0  0  0  0  0  0  0  0  0  0  0  0
    1.2793    9.6103   13.6926 H   0  0  0  0  0  0  0  0  0  0  0  0
   -0.3034    9.8856   15.5763 H   0  0  0  0  0  0  0  0  0  0  0  0
   -2.3703    8.5153   15.6952 H   0  0  0  0  0  0  0  0  0  0  0  0
   -2.8461    6.8710   13.9286 H   0  0  0  0  0  0  0  0  0  0  0  0
   -5.1388    2.8785   10.4302 H   0  0  0  0  0  0  0  0  0  0  0  0
   -4.7435    4.4327   11.1451 H   0  0  0  0  0  0  0  0  0  0  0  0
   -4.5775    0.9250   14.0998 H   0  0  0  0  0  0  0  0  0  0  0  0
   -6.0352    5.5009   15.3092 H   0  0  0  0  0  0  0  0  0  0  0  0
   -4.9570    5.1073   13.1685 H   0  0  0  0  0  0  0  0  0  0  0  0
   -5.5974   -1.4222   16.5707 H   0  0  0  0  0  0  0  0  0  0  0  0
   -4.8878   -0.6356   15.1847 H   0  0  0  0  0  0  0  0  0  0  0  0
  1  2  2  0  0  0  0
  1  9  1  0  0  0  0
  1 29  1  0  0  0  0
  2  3  1  0  0  0  0
  2 14  1  0  0  0  0
  3  4  1  0  0  0  0
  4  5  2  0  0  0  0
  4  9  1  0  0  0  0
  5  6  1  0  0  0  0
  5 30  1  0  0  0  0
  6  7  2  0  0  0  0
  7  8  1  0  0  0  0
  7 10  1  0  0  0  0
  8  9  2  0  0  0  0
  8 13  1  0  0  0  0
 10 11  2  0  0  0  0
 10 31  1  0  0  0  0
 11 12  1  0  0  0  0
 11 32  1  0  0  0  0
 12 13  2  0  0  0  0
 12 33  1  0  0  0  0
 13 34  1  0  0  0  0
 14 15  1  0  0  0  0
 15 16  1  0  0  0  0
 15 35  1  0  0  0  0
 15 36  1  0  0  0  0
 16 17  2  0  0  0  0
 16 18  1  0  0  0  0
 18 19  2  0  0  0  0
 18 23  1  0  0  0  0
 19 20  1  0  0  0  0
 19 37  1  0  0  0  0
 20 21  2  0  0  0  0
 20 24  1  0  0  0  0
 21 22  1  0  0  0  0
 21 26  1  0  0  0  0
 22 23  2  0  0  0  0
 22 38  1  0  0  0  0
 23 39  1  0  0  0  0
 24 25  2  0  0  0  0
 24 27  2  0  0  0  0
 24 28  1  0  0  0  0
 28 40  1  0  0  0  0
 28 41  1  0  0  0  0
M  CHG  1   1   1
M  END
$$$$
