E86
 OpenBabel04091913053D

 54 57  0  0  1  0  0  0  0  0999 V2000
    7.0414   -0.6912   47.4137 C   0  0  0  0  0  0  0  0  0  0  0  0
    5.9544   -1.1340   46.5076 C   0  0  0  0  0  0  0  0  0  0  0  0
    4.6678   -0.6956   46.7539 C   0  0  0  0  0  0  0  0  0  0  0  0
    3.6010   -1.0170   46.0127 N   0  0  0  0  0  0  0  0  0  0  0  0
    3.8420   -1.8114   44.9682 C   0  0  0  0  0  0  0  0  0  0  0  0
    2.7798   -2.1385   44.1532 N   0  0  0  0  0  0  0  0  0  0  0  0
    2.8135   -2.8996   42.9811 C   0  0  0  0  0  0  0  0  0  0  0  0
    3.8627   -2.7586   42.0602 C   0  0  0  0  0  0  0  0  0  0  0  0
    3.9153   -3.5456   40.9127 C   0  0  0  0  0  0  0  0  0  0  0  0
    2.9261   -4.4947   40.6842 C   0  0  0  0  0  0  0  0  0  0  0  0
    1.8880   -4.6666   41.6035 C   0  0  0  0  0  0  0  0  0  0  0  0
    1.8407   -3.8785   42.7495 C   0  0  0  0  0  0  0  0  0  0  0  0
    0.5627   -4.1138   43.8924 Cl  0  0  0  0  0  0  0  0  0  0  0  0
    5.0567   -2.3009   44.6566 N   0  0  0  0  0  0  0  0  0  0  0  0
    6.1077   -1.9583   45.4156 C   0  0  0  0  0  0  0  0  0  0  0  0
    7.3909   -2.5054   44.9483 C   0  0  1  0  0  0  0  0  0  0  0  0
    7.6086   -2.9975   43.6682 C   0  0  0  0  0  0  0  0  0  0  0  0
    8.9176   -3.3906   43.5555 N   0  3  0  0  0  0  0  0  0  0  0  0
    9.5776   -3.1817   44.7421 C   0  0  2  0  0  0  0  0  0  0  0  0
    8.6498   -2.6354   45.6088 C   0  0  0  0  0  0  0  0  0  0  0  0
   10.9751   -3.4149   45.0135 C   0  0  0  0  0  0  0  0  0  0  0  0
   11.6074   -2.7664   45.8181 O   0  0  0  0  0  0  0  0  0  0  0  0
   11.5668   -4.4305   44.2978 N   0  0  0  0  0  0  0  0  0  0  0  0
   12.9934   -4.7394   44.4281 C   0  0  2  0  0  0  0  0  0  0  0  0
   13.5260   -5.1459   43.0494 C   0  0  0  0  0  0  0  0  0  0  0  0
   13.0202   -4.2926   42.0189 O   0  0  0  0  0  0  0  0  0  0  0  0
   13.3158   -5.8329   45.4215 C   0  0  0  0  0  0  0  0  0  0  0  0
   12.3176   -6.6214   45.9995 C   0  0  0  0  0  0  0  0  0  0  0  0
   12.6514   -7.6323   46.8968 C   0  0  0  0  0  0  0  0  0  0  0  0
   13.9891   -7.8770   47.2119 C   0  0  0  0  0  0  0  0  0  0  0  0
   14.9966   -7.1139   46.6340 C   0  0  0  0  0  0  0  0  0  0  0  0
   14.6609   -6.0919   45.7460 C   0  0  0  0  0  0  0  0  0  0  0  0
    6.6629   -0.0267   48.1862 H   0  0  0  0  0  0  0  0  0  0  0  0
    7.8078   -0.1415   46.8433 H   0  0  0  0  0  0  0  0  0  0  0  0
    7.4781   -1.5505   47.9194 H   0  0  0  0  0  0  0  0  0  0  0  0
    4.4580   -0.0307   47.5896 H   0  0  0  0  0  0  0  0  0  0  0  0
    1.8741   -1.8561   44.4944 H   0  0  0  0  0  0  0  0  0  0  0  0
    4.6336   -2.0075   42.2219 H   0  0  0  0  0  0  0  0  0  0  0  0
    4.7244   -3.4038   40.2024 H   0  0  0  0  0  0  0  0  0  0  0  0
    2.9633   -5.1046   39.7860 H   0  0  0  0  0  0  0  0  0  0  0  0
    1.1180   -5.4082   41.4176 H   0  0  0  0  0  0  0  0  0  0  0  0
    6.9292   -3.0735   42.8347 H   0  0  0  0  0  0  0  0  0  0  0  0
    9.3580   -3.7429   42.7108 H   0  0  0  0  0  0  0  0  0  0  0  0
    8.8799   -2.3468   46.6250 H   0  0  0  0  0  0  0  0  0  0  0  0
   11.0250   -5.0089   43.6612 H   0  0  0  0  0  0  0  0  0  0  0  0
   13.5020   -3.8254   44.7614 H   0  0  0  0  0  0  0  0  0  0  0  0
   13.2060   -6.1717   42.8159 H   0  0  0  0  0  0  0  0  0  0  0  0
   14.6179   -5.1177   43.0286 H   0  0  0  0  0  0  0  0  0  0  0  0
   13.2956   -3.3889   42.2383 H   0  0  0  0  0  0  0  0  0  0  0  0
   11.2735   -6.4521   45.7590 H   0  0  0  0  0  0  0  0  0  0  0  0
   11.8640   -8.2264   47.3541 H   0  0  0  0  0  0  0  0  0  0  0  0
   14.2369   -8.6664   47.9140 H   0  0  0  0  0  0  0  0  0  0  0  0
   16.0366   -7.3087   46.8796 H   0  0  0  0  0  0  0  0  0  0  0  0
   15.4598   -5.4980   45.3039 H   0  0  0  0  0  0  0  0  0  0  0  0
  1  2  1  0  0  0  0
  1 33  1  0  0  0  0
  1 34  1  0  0  0  0
  1 35  1  0  0  0  0
  2  3  2  0  0  0  0
  2 15  1  0  0  0  0
  3  4  1  0  0  0  0
  3 36  1  0  0  0  0
  4  5  2  0  0  0  0
  5  6  1  0  0  0  0
  5 14  1  0  0  0  0
  6  7  1  0  0  0  0
  6 37  1  0  0  0  0
  7  8  2  0  0  0  0
  7 12  1  0  0  0  0
  8  9  1  0  0  0  0
  8 38  1  0  0  0  0
  9 10  2  0  0  0  0
  9 39  1  0  0  0  0
 10 11  1  0  0  0  0
 10 40  1  0  0  0  0
 11 12  2  0  0  0  0
 11 41  1  0  0  0  0
 12 13  1  0  0  0  0
 14 15  2  0  0  0  0
 16 15  1  6  0  0  0
 16 17  1  0  0  0  0
 16 20  1  0  0  0  0
 17 18  1  0  0  0  0
 17 42  1  0  0  0  0
 18 19  1  0  0  0  0
 18 43  1  0  0  0  0
 19 20  1  0  0  0  0
 19 21  1  6  0  0  0
 20 44  1  0  0  0  0
 21 22  2  0  0  0  0
 21 23  1  0  0  0  0
 23 24  1  0  0  0  0
 23 45  1  0  0  0  0
 24 25  1  0  0  0  0
 24 27  1  0  0  0  0
 24 46  1  1  0  0  0
 25 26  1  0  0  0  0
 25 47  1  0  0  0  0
 25 48  1  0  0  0  0
 26 49  1  0  0  0  0
 27 28  1  0  0  0  0
 27 32  1  0  0  0  0
 28 29  1  0  0  0  0
 28 50  1  0  0  0  0
 29 30  1  0  0  0  0
 29 51  1  0  0  0  0
 30 31  1  0  0  0  0
 30 52  1  0  0  0  0
 31 32  1  0  0  0  0
 31 53  1  0  0  0  0
 32 54  1  0  0  0  0
M  CHG  1  18   1
M  END
$$$$
