EAH
 OpenBabel04091914043D

 58 57  0  0  1  0  0  0  0  0999 V2000
   -0.6042   -5.9133   22.7140 O   0  0  0  0  0  0  0  0  0  0  0  0
   -1.4417   -4.9574   22.6361 C   0  0  0  0  0  0  0  0  0  0  0  0
   -1.4998   -3.8989   23.3079 O   0  0  0  0  0  0  0  0  0  0  0  0
   -2.5093   -5.1723   21.5622 C   0  0  0  0  0  0  0  0  0  0  0  0
   -3.6996   -4.2461   21.7072 C   0  0  0  0  0  0  0  0  0  0  0  0
   -3.5031   -2.9701   20.8856 C   0  0  0  0  0  0  0  0  0  0  0  0
   -4.6586   -2.0072   21.1053 C   0  0  2  0  0  0  0  0  0  0  0  0
   -5.8350   -2.5134   20.4661 O   0  0  0  0  0  0  0  0  0  0  0  0
   -4.3118   -0.6434   20.5212 C   0  0  0  0  0  0  0  0  0  0  0  0
   -5.5034    0.2861   20.5936 C   0  0  0  0  0  0  0  0  0  0  0  0
   -6.0688    0.4815   19.1981 C   0  0  0  0  0  0  0  0  0  0  0  0
   -7.3313    1.2320   19.3740 C   0  0  0  0  0  0  0  0  0  0  0  0
   -8.0745    1.3647   18.1042 C   0  0  0  0  0  0  0  0  0  0  0  0
   -9.2407    1.9876   18.2289 C   0  0  0  0  0  0  0  0  0  0  0  0
  -10.2892    2.1736   17.2057 C   0  0  0  0  0  0  0  0  0  0  0  0
   -9.9631    1.6066   15.8374 C   0  0  0  0  0  0  0  0  0  0  0  0
   -9.3603    2.6923   14.9941 C   0  0  0  0  0  0  0  0  0  0  0  0
   -9.7577    2.9847   13.7526 C   0  0  0  0  0  0  0  0  0  0  0  0
  -10.7908    2.2189   12.9874 C   0  0  0  0  0  0  0  0  0  0  0  0
  -10.1179    1.2172   12.0558 C   0  0  0  0  0  0  0  0  0  0  0  0
   -9.9727   -0.1553   12.7146 C   0  0  0  0  0  0  0  0  0  0  0  0
   -9.6955   -1.2245   11.6673 C   0  0  0  0  0  0  0  0  0  0  0  0
   -9.4729   -2.5739   12.3189 C   0  0  0  0  0  0  0  0  0  0  0  0
   -2.8695   -6.2127   21.6239 H   0  0  0  0  0  0  0  0  0  0  0  0
   -2.0456   -5.0628   20.5741 H   0  0  0  0  0  0  0  0  0  0  0  0
   -3.8653   -3.9743   22.7580 H   0  0  0  0  0  0  0  0  0  0  0  0
   -4.6057   -4.7625   21.3778 H   0  0  0  0  0  0  0  0  0  0  0  0
   -3.4438   -3.2330   19.8212 H   0  0  0  0  0  0  0  0  0  0  0  0
   -2.5598   -2.4851   21.1624 H   0  0  0  0  0  0  0  0  0  0  0  0
   -4.8788   -1.8931   22.1735 H   0  0  0  0  0  0  0  0  0  0  0  0
   -6.0199   -3.3775   20.8713 H   0  0  0  0  0  0  0  0  0  0  0  0
   -3.9864   -0.7549   19.4794 H   0  0  0  0  0  0  0  0  0  0  0  0
   -3.4804   -0.1971   21.0763 H   0  0  0  0  0  0  0  0  0  0  0  0
   -5.2160    1.2578   21.0044 H   0  0  0  0  0  0  0  0  0  0  0  0
   -6.2820   -0.1123   21.2575 H   0  0  0  0  0  0  0  0  0  0  0  0
   -6.2450   -0.4798   18.6973 H   0  0  0  0  0  0  0  0  0  0  0  0
   -5.3700    1.0590   18.5754 H   0  0  0  0  0  0  0  0  0  0  0  0
   -7.1428    2.2414   19.7639 H   0  0  0  0  0  0  0  0  0  0  0  0
   -7.9954    0.7099   20.0816 H   0  0  0  0  0  0  0  0  0  0  0  0
   -7.6847    0.9161   17.1935 H   0  0  0  0  0  0  0  0  0  0  0  0
   -9.5068    2.3809   19.2127 H   0  0  0  0  0  0  0  0  0  0  0  0
  -10.4818    3.2496   17.1566 H   0  0  0  0  0  0  0  0  0  0  0  0
  -11.1826    1.6866   17.5977 H   0  0  0  0  0  0  0  0  0  0  0  0
  -10.9022    1.2360   15.4377 H   0  0  0  0  0  0  0  0  0  0  0  0
   -9.2945    0.7354   15.8533 H   0  0  0  0  0  0  0  0  0  0  0  0
   -8.5697    3.2900   15.4479 H   0  0  0  0  0  0  0  0  0  0  0  0
   -9.2703    3.8058   13.2299 H   0  0  0  0  0  0  0  0  0  0  0  0
  -11.3984    2.9292   12.4145 H   0  0  0  0  0  0  0  0  0  0  0  0
  -11.5042    1.7087   13.6374 H   0  0  0  0  0  0  0  0  0  0  0  0
   -9.1245    1.5738   11.7468 H   0  0  0  0  0  0  0  0  0  0  0  0
  -10.7206    1.1292   11.1459 H   0  0  0  0  0  0  0  0  0  0  0  0
  -10.8884   -0.4182   13.2552 H   0  0  0  0  0  0  0  0  0  0  0  0
   -9.1587   -0.1311   13.4514 H   0  0  0  0  0  0  0  0  0  0  0  0
   -8.8131   -0.9500   11.0758 H   0  0  0  0  0  0  0  0  0  0  0  0
  -10.5456   -1.2894   10.9780 H   0  0  0  0  0  0  0  0  0  0  0  0
   -9.2826   -3.3345   11.5558 H   0  0  0  0  0  0  0  0  0  0  0  0
  -10.3541   -2.8777   12.8953 H   0  0  0  0  0  0  0  0  0  0  0  0
   -8.6143   -2.5401   12.9949 H   0  0  0  0  0  0  0  0  0  0  0  0
  1  2  2  0  0  0  0
  2  3  1  0  0  0  0
  2  4  1  0  0  0  0
  4  5  1  0  0  0  0
  4 24  1  0  0  0  0
  4 25  1  0  0  0  0
  5  6  1  0  0  0  0
  5 26  1  0  0  0  0
  5 27  1  0  0  0  0
  6  7  1  0  0  0  0
  6 28  1  0  0  0  0
  6 29  1  0  0  0  0
  7  8  1  0  0  0  0
  7  9  1  0  0  0  0
  7 30  1  1  0  0  0
  8 31  1  0  0  0  0
  9 10  1  0  0  0  0
  9 32  1  0  0  0  0
  9 33  1  0  0  0  0
 10 11  1  0  0  0  0
 10 34  1  0  0  0  0
 10 35  1  0  0  0  0
 11 12  1  0  0  0  0
 11 36  1  0  0  0  0
 11 37  1  0  0  0  0
 12 13  1  0  0  0  0
 12 38  1  0  0  0  0
 12 39  1  0  0  0  0
 13 14  2  0  0  0  0
 13 40  1  0  0  0  0
 14 15  1  0  0  0  0
 14 41  1  0  0  0  0
 15 16  1  0  0  0  0
 15 42  1  0  0  0  0
 15 43  1  0  0  0  0
 16 17  1  0  0  0  0
 16 44  1  0  0  0  0
 16 45  1  0  0  0  0
 17 18  2  0  0  0  0
 17 46  1  0  0  0  0
 18 19  1  0  0  0  0
 18 47  1  0  0  0  0
 19 20  1  0  0  0  0
 19 48  1  0  0  0  0
 19 49  1  0  0  0  0
 20 21  1  0  0  0  0
 20 50  1  0  0  0  0
 20 51  1  0  0  0  0
 21 22  1  0  0  0  0
 21 52  1  0  0  0  0
 21 53  1  0  0  0  0
 22 23  1  0  0  0  0
 22 54  1  0  0  0  0
 22 55  1  0  0  0  0
 23 56  1  0  0  0  0
 23 57  1  0  0  0  0
 23 58  1  0  0  0  0
M  END
$$$$
