EAM
 OpenBabel04091914263D

 52 55  0  0  1  0  0  0  0  0999 V2000
   30.0633   48.5475   -7.0871 Cl  0  0  0  0  0  0  0  0  0  0  0  0
   29.0999   49.1064   -5.7775 C   0  0  0  0  0  0  0  0  0  0  0  0
   29.4666   48.7884   -4.4737 C   0  0  0  0  0  0  0  0  0  0  0  0
   28.6724   49.2043   -3.4062 C   0  0  0  0  0  0  0  0  0  0  0  0
   27.9509   49.8550   -6.0264 C   0  0  0  0  0  0  0  0  0  0  0  0
   27.1690   50.2947   -4.9530 C   0  0  0  0  0  0  0  0  0  0  0  0
   27.5271   49.9770   -3.6357 C   0  0  0  0  0  0  0  0  0  0  0  0
   26.6621   50.4347   -2.5042 C   0  0  0  0  0  0  0  0  0  0  0  0
   25.4424   50.7252   -2.8140 N   0  0  0  0  0  0  0  0  0  0  0  0
   27.2195   50.5513   -1.1080 C   0  0  0  0  0  0  0  0  0  0  0  0
   26.4951   50.1672    0.0371 C   0  0  0  0  0  0  0  0  0  0  0  0
   26.9723   50.4757    1.3100 C   0  0  0  0  0  0  0  0  0  0  0  0
   28.2036   51.1206    1.4584 C   0  0  0  0  0  0  0  0  0  0  0  0
   28.9898   51.4008    0.3460 C   0  0  0  0  0  0  0  0  0  0  0  0
   30.2197   52.0022    0.3735 O   0  0  0  0  0  0  0  0  0  0  0  0
   30.8000   52.2177    1.6557 C   0  0  0  0  0  0  0  0  0  0  0  0
   28.4964   51.1216   -0.9294 C   0  0  0  0  0  0  0  0  0  0  0  0
   25.2044   49.5979   -0.0728 N   0  3  0  0  0  0  0  0  0  0  0  0
   24.2134   50.0773   -0.8933 C   0  0  0  0  0  0  0  0  0  0  0  0
   23.0957   49.4087   -0.6880 N   0  0  0  0  0  0  0  0  0  0  0  0
   23.3624   48.4468    0.2593 N   0  0  0  0  0  0  0  0  0  0  0  0
   24.6270   48.5530    0.6253 C   0  0  0  0  0  0  0  0  0  0  0  0
   25.3353   47.6216    1.5338 C   0  0  0  0  0  0  0  0  0  0  0  0
   24.4971   51.2192   -1.8039 C   0  0  2  0  0  0  0  0  0  0  0  0
   23.2663   51.7354   -2.5357 C   0  0  0  0  0  0  0  0  0  0  0  0
   23.6332   52.9491   -3.3694 C   0  0  0  0  0  0  0  0  0  0  0  0
   24.6089   53.6617   -3.1406 O   0  0  0  0  0  0  0  0  0  0  0  0
   22.7299   53.2384   -4.3723 N   0  0  0  0  0  0  0  0  0  0  0  0
   22.9926   54.3195   -5.2984 C   0  0  0  0  0  0  0  0  0  0  0  0
   21.7635   54.6866   -6.1031 C   0  0  0  0  0  0  0  0  0  0  0  0
   30.3628   48.2055   -4.2755 H   0  0  0  0  0  0  0  0  0  0  0  0
   28.9634   48.9109   -2.4037 H   0  0  0  0  0  0  0  0  0  0  0  0
   27.6579   50.0960   -7.0443 H   0  0  0  0  0  0  0  0  0  0  0  0
   26.2731   50.8836   -5.1596 H   0  0  0  0  0  0  0  0  0  0  0  0
   26.3521   50.3364    2.1934 H   0  0  0  0  0  0  0  0  0  0  0  0
   28.5002   51.4234    2.4592 H   0  0  0  0  0  0  0  0  0  0  0  0
   31.7646   52.7154    1.5132 H   0  0  0  0  0  0  0  0  0  0  0  0
   30.9844   51.2648    2.1633 H   0  0  0  0  0  0  0  0  0  0  0  0
   30.1808   52.8788    2.2710 H   0  0  0  0  0  0  0  0  0  0  0  0
   29.1159   51.3794   -1.7867 H   0  0  0  0  0  0  0  0  0  0  0  0
   24.6568   46.8345    1.8826 H   0  0  0  0  0  0  0  0  0  0  0  0
   25.7136   48.1348    2.4233 H   0  0  0  0  0  0  0  0  0  0  0  0
   26.1741   47.1279    1.0293 H   0  0  0  0  0  0  0  0  0  0  0  0
   24.9391   52.0456   -1.2384 H   0  0  0  0  0  0  0  0  0  0  0  0
   22.5002   52.0495   -1.8167 H   0  0  0  0  0  0  0  0  0  0  0  0
   22.8372   50.9558   -3.1765 H   0  0  0  0  0  0  0  0  0  0  0  0
   21.9931   52.5744   -4.5757 H   0  0  0  0  0  0  0  0  0  0  0  0
   23.8080   54.0121   -5.9641 H   0  0  0  0  0  0  0  0  0  0  0  0
   23.3404   55.1891   -4.7297 H   0  0  0  0  0  0  0  0  0  0  0  0
   21.9821   55.5264   -6.7701 H   0  0  0  0  0  0  0  0  0  0  0  0
   20.9403   54.9762   -5.4425 H   0  0  0  0  0  0  0  0  0  0  0  0
   21.4262   53.8421   -6.7125 H   0  0  0  0  0  0  0  0  0  0  0  0
  1  2  1  0  0  0  0
  2  3  2  0  0  0  0
  2  5  1  0  0  0  0
  3  4  1  0  0  0  0
  3 31  1  0  0  0  0
  4  7  2  0  0  0  0
  4 32  1  0  0  0  0
  5  6  2  0  0  0  0
  5 33  1  0  0  0  0
  6  7  1  0  0  0  0
  6 34  1  0  0  0  0
  7  8  1  0  0  0  0
  8  9  2  0  0  0  0
  8 10  1  0  0  0  0
  9 24  1  0  0  0  0
 10 11  2  0  0  0  0
 10 17  1  0  0  0  0
 11 12  1  0  0  0  0
 11 18  1  0  0  0  0
 12 13  2  0  0  0  0
 12 35  1  0  0  0  0
 13 14  1  0  0  0  0
 13 36  1  0  0  0  0
 14 15  1  0  0  0  0
 14 17  2  0  0  0  0
 15 16  1  0  0  0  0
 16 37  1  0  0  0  0
 16 38  1  0  0  0  0
 16 39  1  0  0  0  0
 17 40  1  0  0  0  0
 18 19  2  0  0  0  0
 18 22  1  0  0  0  0
 19 20  1  0  0  0  0
 19 24  1  0  0  0  0
 20 21  1  0  0  0  0
 21 22  2  0  0  0  0
 22 23  1  0  0  0  0
 23 41  1  0  0  0  0
 23 42  1  0  0  0  0
 23 43  1  0  0  0  0
 24 25  1  0  0  0  0
 24 44  1  1  0  0  0
 25 26  1  0  0  0  0
 25 45  1  0  0  0  0
 25 46  1  0  0  0  0
 26 27  2  0  0  0  0
 26 28  1  0  0  0  0
 28 29  1  0  0  0  0
 28 47  1  0  0  0  0
 29 30  1  0  0  0  0
 29 48  1  0  0  0  0
 29 49  1  0  0  0  0
 30 50  1  0  0  0  0
 30 51  1  0  0  0  0
 30 52  1  0  0  0  0
M  CHG  1  18   1
M  END
$$$$
