EEC
 OpenBabel04091913353D

 58 59  0  0  1  0  0  0  0  0999 V2000
    6.6870   31.0091    8.3580 C   0  0  0  0  0  0  0  0  0  0  0  0
    8.4537   29.5235    7.4993 N   0  0  0  0  0  0  0  0  0  0  0  0
    6.6545   28.4505    6.6079 O   0  0  0  0  0  0  0  0  0  0  0  0
    7.7266   29.9228    8.6877 C   0  0  1  0  0  0  0  0  0  0  0  0
    8.0195   27.4800    4.5657 N   0  0  0  0  0  0  0  0  0  0  0  0
    9.9029   26.2178    4.3297 O   0  0  0  0  0  0  0  0  0  0  0  0
    8.7363   30.4727    9.6703 C   0  0  0  0  0  0  0  0  0  0  0  0
    5.6835   22.2954    6.3838 N   0  0  0  0  0  0  0  0  0  0  0  0
    9.1712   29.3942   10.6447 C   0  0  0  0  0  0  0  0  0  0  0  0
    9.7700   32.1573    3.2367 O   0  0  0  0  0  0  0  0  0  0  0  0
   10.1336   29.9754   11.6794 C   0  0  0  0  0  0  0  0  0  0  0  0
    6.9220   22.6146    5.8563 O   0  0  0  0  0  0  0  0  0  0  0  0
    7.8416   28.7994    6.5481 C   0  0  0  0  0  0  0  0  0  0  0  0
    8.6511   28.5692    5.2723 C   0  0  2  0  0  0  0  0  0  0  0  0
    8.5011   29.8315    4.4474 C   0  0  0  0  0  0  0  0  0  0  0  0
   10.3833   31.2091   11.5952 O   0  0  0  0  0  0  0  0  0  0  0  0
    9.3321   29.8412    3.1774 C   0  0  0  0  0  0  0  0  0  0  0  0
    7.0707   31.8784    7.3741 N   0  0  0  0  0  0  0  0  0  0  0  0
    5.6653   31.2090    9.0111 O   0  0  0  0  0  0  0  0  0  0  0  0
    9.1373   31.2509    2.6250 C   0  0  0  0  0  0  0  0  0  0  0  0
    8.6997   26.3851    4.1587 C   0  0  0  0  0  0  0  0  0  0  0  0
    7.8290   25.3676    3.4878 C   0  0  0  0  0  0  0  0  0  0  0  0
    8.0210   24.0642    4.2490 C   0  0  0  0  0  0  0  0  0  0  0  0
    5.4539   23.9454    4.8532 C   0  0  0  0  0  0  0  0  0  0  0  0
    4.7925   23.1055    5.7842 C   0  0  0  0  0  0  0  0  0  0  0  0
    3.3566   23.0539    6.0881 C   0  0  0  0  0  0  0  0  0  0  0  0
    2.4117   23.6883    5.2628 C   0  0  0  0  0  0  0  0  0  0  0  0
    1.0474   23.6239    5.5605 C   0  0  0  0  0  0  0  0  0  0  0  0
    0.6106   22.9237    6.6855 C   0  0  0  0  0  0  0  0  0  0  0  0
    1.5352   22.2923    7.5147 C   0  0  0  0  0  0  0  0  0  0  0  0
    2.8981   22.3575    7.2161 C   0  0  0  0  0  0  0  0  0  0  0  0
    6.7836   23.6043    4.9337 C   0  0  0  0  0  0  0  0  0  0  0  0
    8.3467   31.3378    1.6445 O   0  0  0  0  0  0  0  0  0  0  0  0
   10.5711   29.1207   12.5150 O   0  0  0  0  0  0  0  0  0  0  0  0
    9.4145   29.8162    7.3727 H   0  0  0  0  0  0  0  0  0  0  0  0
    7.1712   29.0569    9.0694 H   0  0  0  0  0  0  0  0  0  0  0  0
    7.0197   27.5674    4.4327 H   0  0  0  0  0  0  0  0  0  0  0  0
    8.3196   31.3289   10.2108 H   0  0  0  0  0  0  0  0  0  0  0  0
    9.6239   30.8435    9.1362 H   0  0  0  0  0  0  0  0  0  0  0  0
    9.6544   28.5673   10.1059 H   0  0  0  0  0  0  0  0  0  0  0  0
    8.2902   28.9831   11.1539 H   0  0  0  0  0  0  0  0  0  0  0  0
    9.6887   28.3378    5.5395 H   0  0  0  0  0  0  0  0  0  0  0  0
    8.7514   30.6962    5.0684 H   0  0  0  0  0  0  0  0  0  0  0  0
    7.4408   29.9338    4.1746 H   0  0  0  0  0  0  0  0  0  0  0  0
    8.9827   29.0845    2.4665 H   0  0  0  0  0  0  0  0  0  0  0  0
   10.3871   29.6510    3.3974 H   0  0  0  0  0  0  0  0  0  0  0  0
    6.4321   32.6087    7.0995 H   0  0  0  0  0  0  0  0  0  0  0  0
    7.9221   31.7264    6.8503 H   0  0  0  0  0  0  0  0  0  0  0  0
    8.1535   25.2901    2.4440 H   0  0  0  0  0  0  0  0  0  0  0  0
    6.7896   25.7098    3.4619 H   0  0  0  0  0  0  0  0  0  0  0  0
    8.8220   24.1671    4.9947 H   0  0  0  0  0  0  0  0  0  0  0  0
    8.3556   23.2985    3.5375 H   0  0  0  0  0  0  0  0  0  0  0  0
    5.0202   24.7193    4.2377 H   0  0  0  0  0  0  0  0  0  0  0  0
    2.7173   24.2377    4.3780 H   0  0  0  0  0  0  0  0  0  0  0  0
    0.3197   24.1225    4.9215 H   0  0  0  0  0  0  0  0  0  0  0  0
   -0.4495   22.8744    6.9237 H   0  0  0  0  0  0  0  0  0  0  0  0
    1.2048   21.7513    8.3967 H   0  0  0  0  0  0  0  0  0  0  0  0
    3.6107   21.8656    7.8758 H   0  0  0  0  0  0  0  0  0  0  0  0
  1  4  1  0  0  0  0
  1 18  1  0  0  0  0
  1 19  2  0  0  0  0
  2  4  1  0  0  0  0
  2 13  1  0  0  0  0
  2 35  1  0  0  0  0
  3 13  2  0  0  0  0
  4  7  1  0  0  0  0
  4 36  1  1  0  0  0
  5 14  1  0  0  0  0
  5 21  1  0  0  0  0
  5 37  1  0  0  0  0
  6 21  2  0  0  0  0
  7  9  1  0  0  0  0
  7 38  1  0  0  0  0
  7 39  1  0  0  0  0
  8 12  1  0  0  0  0
  8 25  2  0  0  0  0
  9 11  1  0  0  0  0
  9 40  1  0  0  0  0
  9 41  1  0  0  0  0
 10 20  2  0  0  0  0
 11 16  2  0  0  0  0
 11 34  1  0  0  0  0
 12 32  1  0  0  0  0
 13 14  1  0  0  0  0
 14 15  1  0  0  0  0
 14 42  1  1  0  0  0
 15 17  1  0  0  0  0
 15 43  1  0  0  0  0
 15 44  1  0  0  0  0
 17 20  1  0  0  0  0
 17 45  1  0  0  0  0
 17 46  1  0  0  0  0
 18 47  1  0  0  0  0
 18 48  1  0  0  0  0
 20 33  1  0  0  0  0
 21 22  1  0  0  0  0
 22 23  1  0  0  0  0
 22 49  1  0  0  0  0
 22 50  1  0  0  0  0
 23 32  1  0  0  0  0
 23 51  1  0  0  0  0
 23 52  1  0  0  0  0
 24 25  1  0  0  0  0
 24 32  2  0  0  0  0
 24 53  1  0  0  0  0
 25 26  1  0  0  0  0
 26 27  2  0  0  0  0
 26 31  1  0  0  0  0
 27 28  1  0  0  0  0
 27 54  1  0  0  0  0
 28 29  2  0  0  0  0
 28 55  1  0  0  0  0
 29 30  1  0  0  0  0
 29 56  1  0  0  0  0
 30 31  2  0  0  0  0
 30 57  1  0  0  0  0
 31 58  1  0  0  0  0
M  END
$$$$
