EVA
 OpenBabel04091913233D

 21 21  0  0  1  0  0  0  0  0999 V2000
  -21.5125  -28.0133   -1.1376 C   0  0  0  0  0  0  0  0  0  0  0  0
  -23.4044  -26.4372   -0.8143 N   0  0  0  0  0  0  0  0  0  0  0  0
  -22.0979  -28.7923   -1.9249 O   0  0  0  0  0  0  0  0  0  0  0  0
  -22.4002  -27.2533   -0.1301 C   0  0  1  0  0  0  0  0  0  0  0  0
  -23.0515  -28.2407    0.8267 C   0  0  2  0  0  0  0  0  0  0  0  0
  -24.0616  -27.4821    1.6983 C   0  0  1  0  0  0  0  0  0  0  0  0
  -22.0685  -28.7916    1.7152 O   0  0  0  0  0  0  0  0  0  0  0  0
  -24.6908  -26.2094   -0.4143 C   0  0  0  0  0  0  0  0  0  0  0  0
  -25.9098  -25.9296    1.6771 O   0  0  0  0  0  0  0  0  0  0  0  0
  -25.3975  -25.4667   -1.0845 O   0  0  0  0  0  0  0  0  0  0  0  0
  -25.1753  -26.8722    0.8637 C   0  0  2  0  0  0  0  0  0  0  0  0
  -24.6556  -28.3878    2.6488 O   0  0  0  0  0  0  0  0  0  0  0  0
  -20.2782  -27.6972   -1.1348 O   0  0  0  0  0  0  0  0  0  0  0  0
  -23.1617  -26.0903   -1.7384 H   0  0  0  0  0  0  0  0  0  0  0  0
  -21.7721  -26.5473    0.4305 H   0  0  0  0  0  0  0  0  0  0  0  0
  -23.5668  -29.0512    0.2939 H   0  0  0  0  0  0  0  0  0  0  0  0
  -23.5556  -26.7000    2.2879 H   0  0  0  0  0  0  0  0  0  0  0  0
  -22.5113  -29.4826    2.2328 H   0  0  0  0  0  0  0  0  0  0  0  0
  -25.2896  -25.2062    1.8713 H   0  0  0  0  0  0  0  0  0  0  0  0
  -25.8903  -27.6560    0.5964 H   0  0  0  0  0  0  0  0  0  0  0  0
  -23.9428  -28.7353    3.2052 H   0  0  0  0  0  0  0  0  0  0  0  0
  1  3  2  0  0  0  0
  1  4  1  0  0  0  0
  1 13  1  0  0  0  0
  2  4  1  0  0  0  0
  2  8  1  0  0  0  0
  2 14  1  0  0  0  0
  4  5  1  0  0  0  0
  4 15  1  1  0  0  0
  5  6  1  0  0  0  0
  5  7  1  0  0  0  0
  5 16  1  6  0  0  0
  6 11  1  0  0  0  0
  6 12  1  0  0  0  0
  6 17  1  1  0  0  0
  7 18  1  0  0  0  0
  8 10  2  0  0  0  0
  8 11  1  0  0  0  0
  9 11  1  0  0  0  0
  9 19  1  0  0  0  0
 11 20  1  6  0  0  0
 12 21  1  0  0  0  0
M  END
$$$$
