EVD
 OpenBabel04091915123D

 20 21  0  0  0  0  0  0  0  0999 V2000
   15.6164   -0.3631   16.1912 N   0  0  0  0  0  0  0  0  0  0  0  0
   17.0933    2.5195   15.9948 O   0  0  0  0  0  0  0  0  0  0  0  0
   15.0311    0.9992   16.9342 S   0  0  0  0  0  0  0  0  0  0  0  0
   15.5907    1.0704   18.2570 O   0  0  0  0  0  0  0  0  0  0  0  0
   15.7331    2.3604   16.0499 C   0  0  0  0  0  0  0  0  0  0  0  0
   13.6172    1.0848   16.6522 O   0  0  0  0  0  0  0  0  0  0  0  0
   15.1208    3.3569   15.3089 C   0  0  0  0  0  0  0  0  0  0  0  0
   16.2055    5.3003   13.9923 C   0  0  0  0  0  0  0  0  0  0  0  0
   17.4613    5.8394   13.7139 C   0  0  0  0  0  0  0  0  0  0  0  0
   18.6495    5.2497   14.1546 C   0  0  0  0  0  0  0  0  0  0  0  0
   18.6158    4.1097   14.9499 C   0  0  0  0  0  0  0  0  0  0  0  0
   17.3438    3.6125   15.2498 C   0  0  0  0  0  0  0  0  0  0  0  0
   16.1516    4.1616   14.7984 C   0  0  0  0  0  0  0  0  0  0  0  0
   15.3609   -0.5584   15.2253 H   0  0  0  0  0  0  0  0  0  0  0  0
   16.2784   -0.9402   16.7034 H   0  0  0  0  0  0  0  0  0  0  0  0
   14.0496    3.4734   15.1737 H   0  0  0  0  0  0  0  0  0  0  0  0
   15.3003    5.7334   13.5790 H   0  0  0  0  0  0  0  0  0  0  0  0
   17.5071    6.7651   13.1305 H   0  0  0  0  0  0  0  0  0  0  0  0
   19.6082    5.6808   13.8721 H   0  0  0  0  0  0  0  0  0  0  0  0
   19.5127    3.6252   15.3202 H   0  0  0  0  0  0  0  0  0  0  0  0
  1  3  1  0  0  0  0
  1 14  1  0  0  0  0
  1 15  1  0  0  0  0
  2  5  1  0  0  0  0
  2 12  1  0  0  0  0
  3  4  2  0  0  0  0
  3  5  1  0  0  0  0
  3  6  2  0  0  0  0
  5  7  2  0  0  0  0
  7 13  1  0  0  0  0
  7 16  1  0  0  0  0
  8  9  2  0  0  0  0
  8 13  1  0  0  0  0
  8 17  1  0  0  0  0
  9 10  1  0  0  0  0
  9 18  1  0  0  0  0
 10 11  2  0  0  0  0
 10 19  1  0  0  0  0
 11 12  1  0  0  0  0
 11 20  1  0  0  0  0
 12 13  2  0  0  0  0
M  END
$$$$
