EVH
 OpenBabel04091915133D

 14 14  0  0  0  0  0  0  0  0999 V2000
   15.0512    1.0298   16.8380 S   0  0  0  0  0  0  0  0  0  0  0  0
   16.7919    2.4609   15.2281 N   0  3  0  0  0  0  0  0  0  0  0  0
   13.6164    0.9130   16.7995 O   0  0  0  0  0  0  0  0  0  0  0  0
   15.5115    2.3185   15.7235 C   0  0  0  0  0  0  0  0  0  0  0  0
   15.8083    1.2852   18.0507 O   0  0  0  0  0  0  0  0  0  0  0  0
   14.7005    3.2344   15.2088 N   0  0  0  0  0  0  0  0  0  0  0  0
   15.4855    3.9825   14.3728 C   0  0  0  0  0  0  0  0  0  0  0  0
   16.7797    3.5221   14.3648 C   0  0  0  0  0  0  0  0  0  0  0  0
   15.6692   -0.3626   16.1668 N   0  0  0  0  0  0  0  0  0  0  0  0
   17.5841    1.8734   15.4582 H   0  0  0  0  0  0  0  0  0  0  0  0
   15.0709    4.8104   13.8206 H   0  0  0  0  0  0  0  0  0  0  0  0
   17.6562    3.8588   13.8335 H   0  0  0  0  0  0  0  0  0  0  0  0
   16.6648   -0.5390   16.2172 H   0  0  0  0  0  0  0  0  0  0  0  0
   14.9968   -1.0513   15.8544 H   0  0  0  0  0  0  0  0  0  0  0  0
  1  3  2  0  0  0  0
  1  4  1  0  0  0  0
  1  5  2  0  0  0  0
  1  9  1  0  0  0  0
  2  4  2  0  0  0  0
  2  8  1  0  0  0  0
  2 10  1  0  0  0  0
  4  6  1  0  0  0  0
  6  7  1  0  0  0  0
  7  8  2  0  0  0  0
  7 11  1  0  0  0  0
  8 12  1  0  0  0  0
  9 13  1  0  0  0  0
  9 14  1  0  0  0  0
M  CHG  1   2   1
M  END
$$$$
