EZL
 OpenBabel04091911273D

 26 27  0  0  0  0  0  0  0  0999 V2000
   -5.4925   -0.6917   16.3440 N   0  0  0  0  0  0  0  0  0  0  0  0
   -3.6739    3.3416   15.2823 C   0  0  0  0  0  0  0  0  0  0  0  0
   -4.7686    4.0822   14.8340 C   0  0  0  0  0  0  0  0  0  0  0  0
   -4.6026    5.2689   14.0890 C   0  0  0  0  0  0  0  0  0  0  0  0
   -3.2980    5.7094   13.8237 C   0  0  0  0  0  0  0  0  0  0  0  0
   -1.9565    7.5340   13.0201 C   0  0  0  0  0  0  0  0  0  0  0  0
   -5.6287    0.8351   18.3257 O   0  0  0  0  0  0  0  0  0  0  0  0
   -7.4865    0.7855   16.6052 O   0  0  0  0  0  0  0  0  0  0  0  0
   -6.0875    0.7461   16.9525 S   0  0  0  0  0  0  0  0  0  0  0  0
   -5.2764    2.0812   16.0938 C   0  0  0  0  0  0  0  0  0  0  0  0
   -3.9691    2.1860   15.9733 N   0  0  0  0  0  0  0  0  0  0  0  0
   -6.2140    3.2964   15.3446 S   0  0  0  0  0  0  0  0  0  0  0  0
   -2.2031    4.9832   14.2794 C   0  0  0  0  0  0  0  0  0  0  0  0
   -2.3762    3.8016   15.0067 C   0  0  0  0  0  0  0  0  0  0  0  0
   -3.2178    6.8590   13.0912 O   0  0  0  0  0  0  0  0  0  0  0  0
   -1.7601    8.4156   14.2426 C   0  0  0  0  0  0  0  0  0  0  0  0
   -4.4828   -0.8096   16.3473 H   0  0  0  0  0  0  0  0  0  0  0  0
   -6.0866   -1.1825   15.6813 H   0  0  0  0  0  0  0  0  0  0  0  0
   -5.4611    5.8321   13.7407 H   0  0  0  0  0  0  0  0  0  0  0  0
   -1.9804    8.1669   12.1263 H   0  0  0  0  0  0  0  0  0  0  0  0
   -1.1146    6.8537   12.8646 H   0  0  0  0  0  0  0  0  0  0  0  0
   -1.1803    5.2838   14.0935 H   0  0  0  0  0  0  0  0  0  0  0  0
   -1.5195    3.2447   15.3583 H   0  0  0  0  0  0  0  0  0  0  0  0
   -0.8166    8.9642   14.1764 H   0  0  0  0  0  0  0  0  0  0  0  0
   -1.7570    7.8283   15.1639 H   0  0  0  0  0  0  0  0  0  0  0  0
   -2.5813    9.1351   14.3256 H   0  0  0  0  0  0  0  0  0  0  0  0
  1  9  1  0  0  0  0
  1 17  1  0  0  0  0
  1 18  1  0  0  0  0
  2  3  2  0  0  0  0
  2 11  1  0  0  0  0
  2 14  1  0  0  0  0
  3  4  1  0  0  0  0
  3 12  1  0  0  0  0
  4  5  2  0  0  0  0
  4 19  1  0  0  0  0
  5 13  1  0  0  0  0
  5 15  1  0  0  0  0
  6 15  1  0  0  0  0
  6 16  1  0  0  0  0
  6 20  1  0  0  0  0
  6 21  1  0  0  0  0
  7  9  2  0  0  0  0
  8  9  2  0  0  0  0
  9 10  1  0  0  0  0
 10 11  2  0  0  0  0
 10 12  1  0  0  0  0
 13 14  2  0  0  0  0
 13 22  1  0  0  0  0
 14 23  1  0  0  0  0
 16 24  1  0  0  0  0
 16 25  1  0  0  0  0
 16 26  1  0  0  0  0
M  END
$$$$
