F01
 OpenBabel04091911453D

 30 31  0  0  1  0  0  0  0  0999 V2000
   33.4515    5.9414   42.1555 O   0  0  0  0  0  0  0  0  0  0  0  0
   34.0319    5.1994   41.3702 C   0  0  0  0  0  0  0  0  0  0  0  0
   35.0845    5.6840   40.6009 N   0  3  0  0  0  0  0  0  0  0  0  0
   35.8213    4.9737   39.7016 C   0  0  0  0  0  0  0  0  0  0  0  0
   36.7687    5.5757   39.0776 N   0  0  0  0  0  0  0  0  0  0  0  0
   35.4251    3.5676   39.5343 C   0  0  0  0  0  0  0  0  0  0  0  0
   36.1308    2.8297   38.6647 F   0  0  0  0  0  0  0  0  0  0  0  0
   34.4193    3.0858   40.2520 C   0  0  0  0  0  0  0  0  0  0  0  0
   33.7228    3.8514   41.1714 N   0  3  0  0  0  0  0  0  0  0  0  0
   32.6895    3.2400   42.0221 C   0  0  2  0  0  0  0  0  0  0  0  0
   33.2176    1.9885   42.5212 O   0  0  0  0  0  0  0  0  0  0  0  0
   32.2079    0.9756   42.3444 C   0  0  2  0  0  0  0  0  0  0  0  0
   32.8870   -0.3753   42.0933 C   0  0  0  0  0  0  0  0  0  0  0  0
   33.5871   -0.3724   40.8455 O   0  0  0  0  0  0  0  0  0  0  0  0
   31.3556    1.4257   41.1691 C   0  0  1  0  0  0  0  0  0  0  0  0
   30.0475    0.8620   41.2094 O   0  0  0  0  0  0  0  0  0  0  0  0
   31.3451    2.9414   41.3196 C   0  0  1  0  0  0  0  0  0  0  0  0
   30.2350    3.3503   42.1312 O   0  0  0  0  0  0  0  0  0  0  0  0
   35.3365    6.6513   40.7432 H   0  0  0  0  0  0  0  0  0  0  0  0
   37.2282    4.9061   38.4254 H   0  0  0  0  0  0  0  0  0  0  0  0
   34.1339    2.0563   40.1357 H   0  0  0  0  0  0  0  0  0  0  0  0
   32.5069    3.8794   42.8971 H   0  0  0  0  0  0  0  0  0  0  0  0
   31.6195    0.9098   43.2708 H   0  0  0  0  0  0  0  0  0  0  0  0
   32.1497   -1.1811   42.0583 H   0  0  0  0  0  0  0  0  0  0  0  0
   33.6229   -0.5966   42.8729 H   0  0  0  0  0  0  0  0  0  0  0  0
   34.3307    0.2429   40.9635 H   0  0  0  0  0  0  0  0  0  0  0  0
   31.8256    1.1626   40.2163 H   0  0  0  0  0  0  0  0  0  0  0  0
   29.6021    1.0717   40.3703 H   0  0  0  0  0  0  0  0  0  0  0  0
   31.2369    3.4536   40.3589 H   0  0  0  0  0  0  0  0  0  0  0  0
   29.4499    2.8733   41.8014 H   0  0  0  0  0  0  0  0  0  0  0  0
  1  2  2  0  0  0  0
  2  3  1  0  0  0  0
  2  9  1  0  0  0  0
  3  4  1  0  0  0  0
  3 19  1  0  0  0  0
  4  5  2  0  0  0  0
  4  6  1  0  0  0  0
  5 20  1  0  0  0  0
  6  7  1  0  0  0  0
  6  8  2  0  0  0  0
  8  9  1  0  0  0  0
  8 21  1  0  0  0  0
  9 10  1  0  0  0  0
 10 11  1  0  0  0  0
 10 17  1  0  0  0  0
 10 22  1  1  0  0  0
 11 12  1  0  0  0  0
 12 13  1  0  0  0  0
 12 15  1  0  0  0  0
 12 23  1  1  0  0  0
 13 14  1  0  0  0  0
 13 24  1  0  0  0  0
 13 25  1  0  0  0  0
 14 26  1  0  0  0  0
 15 16  1  0  0  0  0
 15 17  1  0  0  0  0
 15 27  1  6  0  0  0
 16 28  1  0  0  0  0
 17 18  1  0  0  0  0
 17 29  1  6  0  0  0
 18 30  1  0  0  0  0
M  CHG  2   3   1   9   1
M  END
$$$$
