F13
 OpenBabel04091912403D

 30 32  0  0  0  0  0  0  0  0999 V2000
  -11.6238   59.7150   11.6708 F   0  0  0  0  0  0  0  0  0  0  0  0
  -10.8274   58.7732   11.1478 C   0  0  0  0  0  0  0  0  0  0  0  0
  -10.1577   57.8968   11.9901 C   0  0  0  0  0  0  0  0  0  0  0  0
  -10.6860   58.6879    9.7688 C   0  0  0  0  0  0  0  0  0  0  0  0
   -9.8594   57.7078    9.2199 C   0  0  0  0  0  0  0  0  0  0  0  0
   -9.1821   56.8164   10.0538 C   0  0  0  0  0  0  0  0  0  0  0  0
   -9.3238   56.9110   11.4461 C   0  0  0  0  0  0  0  0  0  0  0  0
   -8.6324   55.9892   12.3882 C   0  0  0  0  0  0  0  0  0  0  0  0
   -9.0574   55.9126   13.5380 O   0  0  0  0  0  0  0  0  0  0  0  0
   -7.5030   55.3545   11.9002 N   0  0  0  0  0  0  0  0  0  0  0  0
   -6.6452   54.5305   12.6524 C   0  0  0  0  0  0  0  0  0  0  0  0
   -7.0756   53.8114   13.7742 C   0  0  0  0  0  0  0  0  0  0  0  0
   -6.1727   53.0318   14.4952 C   0  0  0  0  0  0  0  0  0  0  0  0
   -4.8327   52.9891   14.1289 C   0  0  0  0  0  0  0  0  0  0  0  0
   -4.3983   53.6966   12.9999 C   0  0  0  0  0  0  0  0  0  0  0  0
   -5.3056   54.4479   12.2579 C   0  0  0  0  0  0  0  0  0  0  0  0
   -2.9466   53.6580   12.5979 C   0  0  0  0  0  0  0  0  0  0  0  0
   -2.4856   54.0644   11.3847 N   0  0  0  0  0  0  0  0  0  0  0  0
   -1.1537   53.8308   11.4283 N   0  0  0  0  0  0  0  0  0  0  0  0
   -0.8195   53.3694   12.6525 N   0  0  0  0  0  0  0  0  0  0  0  0
   -1.9398   53.2169   13.3953 N   0  0  0  0  0  0  0  0  0  0  0  0
  -10.2845   57.9914   13.0660 H   0  0  0  0  0  0  0  0  0  0  0  0
  -11.2204   59.3874    9.1290 H   0  0  0  0  0  0  0  0  0  0  0  0
   -9.7450   57.6342    8.1389 H   0  0  0  0  0  0  0  0  0  0  0  0
   -8.5677   56.0485    9.5913 H   0  0  0  0  0  0  0  0  0  0  0  0
   -7.1225   55.6582   11.0123 H   0  0  0  0  0  0  0  0  0  0  0  0
   -8.1224   53.8239   14.0823 H   0  0  0  0  0  0  0  0  0  0  0  0
   -6.5184   52.4656   15.3573 H   0  0  0  0  0  0  0  0  0  0  0  0
   -4.1281   52.3882   14.7030 H   0  0  0  0  0  0  0  0  0  0  0  0
   -4.9450   55.0269   11.4038 H   0  0  0  0  0  0  0  0  0  0  0  0
  1  2  1  0  0  0  0
  2  3  2  0  0  0  0
  2  4  1  0  0  0  0
  3  7  1  0  0  0  0
  3 22  1  0  0  0  0
  4  5  2  0  0  0  0
  4 23  1  0  0  0  0
  5  6  1  0  0  0  0
  5 24  1  0  0  0  0
  6  7  2  0  0  0  0
  6 25  1  0  0  0  0
  7  8  1  0  0  0  0
  8  9  2  0  0  0  0
  8 10  1  0  0  0  0
 10 11  1  0  0  0  0
 10 26  1  0  0  0  0
 11 12  2  0  0  0  0
 11 16  1  0  0  0  0
 12 13  1  0  0  0  0
 12 27  1  0  0  0  0
 13 14  2  0  0  0  0
 13 28  1  0  0  0  0
 14 15  1  0  0  0  0
 14 29  1  0  0  0  0
 15 16  2  0  0  0  0
 15 17  1  0  0  0  0
 16 30  1  0  0  0  0
 17 18  1  0  0  0  0
 17 21  2  0  0  0  0
 18 19  1  0  0  0  0
 19 20  2  0  0  0  0
 20 21  1  0  0  0  0
M  END
$$$$
