F1X
 OpenBabel04091914123D

 27 27  0  0  1  0  0  0  0  0999 V2000
   -0.8251    4.1343    4.2530 C   0  0  0  0  0  0  0  0  0  0  0  0
   -1.1604    3.5876    2.9908 O   0  0  0  0  0  0  0  0  0  0  0  0
   -0.6973    4.5171    1.7294 P   0  0  0  0  0  0  0  0  0  0  0  0
   -2.0279    4.8330    4.9300 C   0  0  2  0  0  0  0  0  0  0  0  0
   -2.8016    5.7017    4.1043 O   0  0  0  0  0  0  0  0  0  0  0  0
   -1.5328    5.6550    6.1335 C   0  0  1  0  0  0  0  0  0  0  0  0
   -1.0114    6.9454    5.8411 O   0  0  0  0  0  0  0  0  0  0  0  0
   -2.8067    5.6957    6.9694 C   0  0  2  0  0  0  0  0  0  0  0  0
   -2.5486    6.1332    8.3040 O   0  0  0  0  0  0  0  0  0  0  0  0
   -3.2162    4.2301    6.8503 C   0  0  2  0  0  0  0  0  0  0  0  0
   -2.9298    3.8324    5.5031 O   0  0  0  0  0  0  0  0  0  0  0  0
   -4.6707    3.9681    7.2375 C   0  0  0  0  0  0  0  0  0  0  0  0
   -4.7700    3.7023    8.6422 O   0  0  0  0  0  0  0  0  0  0  0  0
   -1.2999    5.8721    2.0950 O   0  0  0  0  0  0  0  0  0  0  0  0
    0.8322    4.4790    1.8155 O   0  0  0  0  0  0  0  0  0  0  0  0
   -1.2935    3.8421    0.5240 O   0  0  0  0  0  0  0  0  0  0  0  0
    0.0100    4.8379    4.1677 H   0  0  0  0  0  0  0  0  0  0  0  0
   -0.4833    3.3047    4.8864 H   0  0  0  0  0  0  0  0  0  0  0  0
   -2.2175    5.8640    3.2937 H   0  0  0  0  0  0  0  0  0  0  0  0
   -0.7523    5.1159    6.6882 H   0  0  0  0  0  0  0  0  0  0  0  0
   -1.0422    7.4676    6.6522 H   0  0  0  0  0  0  0  0  0  0  0  0
   -3.5427    6.3686    6.5278 H   0  0  0  0  0  0  0  0  0  0  0  0
   -2.0620    5.4295    8.7535 H   0  0  0  0  0  0  0  0  0  0  0  0
   -2.5757    3.6180    7.4984 H   0  0  0  0  0  0  0  0  0  0  0  0
   -5.0796    3.1024    6.7047 H   0  0  0  0  0  0  0  0  0  0  0  0
   -5.3101    4.8253    7.0107 H   0  0  0  0  0  0  0  0  0  0  0  0
   -4.2155    2.9220    8.8128 H   0  0  0  0  0  0  0  0  0  0  0  0
  1  2  1  0  0  0  0
  1 17  1  0  0  0  0
  1 18  1  0  0  0  0
  2  3  1  0  0  0  0
  3 14  2  0  0  0  0
  3 15  1  0  0  0  0
  3 16  1  0  0  0  0
  4  1  1  6  0  0  0
  4  5  1  0  0  0  0
  4  6  1  0  0  0  0
  4 11  1  0  0  0  0
  5 19  1  0  0  0  0
  6  7  1  0  0  0  0
  6  8  1  0  0  0  0
  6 20  1  1  0  0  0
  7 21  1  0  0  0  0
  8  9  1  0  0  0  0
  8 10  1  0  0  0  0
  8 22  1  6  0  0  0
  9 23  1  0  0  0  0
 10 11  1  0  0  0  0
 10 12  1  0  0  0  0
 10 24  1  1  0  0  0
 12 13  1  0  0  0  0
 12 25  1  0  0  0  0
 12 26  1  0  0  0  0
 13 27  1  0  0  0  0
M  END
$$$$
