F6P
 OpenBabel04091911063D

 27 27  0  0  1  0  0  0  0  0999 V2000
   68.7664   85.6278   59.3038 O   0  0  0  0  0  0  0  0  0  0  0  0
   67.8668   85.0278   60.2335 C   0  0  0  0  0  0  0  0  0  0  0  0
   68.5196   84.5423   61.5404 C   0  0  2  0  0  0  0  0  0  0  0  0
   67.5113   84.3790   62.5477 O   0  0  0  0  0  0  0  0  0  0  0  0
   69.6416   85.4054   62.1290 C   0  0  1  0  0  0  0  0  0  0  0  0
   69.2038   86.5181   62.9156 O   0  0  0  0  0  0  0  0  0  0  0  0
   70.3511   84.3554   63.0002 C   0  0  2  0  0  0  0  0  0  0  0  0
   71.6429   84.7727   63.3877 O   0  0  0  0  0  0  0  0  0  0  0  0
   70.3805   83.1980   62.0245 C   0  0  2  0  0  0  0  0  0  0  0  0
   69.1279   83.2767   61.2863 O   0  0  0  0  0  0  0  0  0  0  0  0
   70.5568   81.8065   62.6382 C   0  0  0  0  0  0  0  0  0  0  0  0
   70.6055   80.9411   61.5238 O   0  0  0  0  0  0  0  0  0  0  0  0
   70.7000   79.3313   61.7778 P   0  0  0  0  0  0  0  0  0  0  0  0
   72.0651   79.1444   62.4219 O   0  0  0  0  0  0  0  0  0  0  0  0
   70.5618   78.7485   60.3856 O   0  0  0  0  0  0  0  0  0  0  0  0
   69.5271   79.0320   62.7121 O   0  0  0  0  0  0  0  0  0  0  0  0
   69.4315   84.9470   59.0862 H   0  0  0  0  0  0  0  0  0  0  0  0
   67.4018   84.1730   59.7171 H   0  0  0  0  0  0  0  0  0  0  0  0
   67.0660   85.7391   60.4453 H   0  0  0  0  0  0  0  0  0  0  0  0
   66.9013   83.7126   62.1820 H   0  0  0  0  0  0  0  0  0  0  0  0
   70.3294   85.7775   61.3621 H   0  0  0  0  0  0  0  0  0  0  0  0
   68.5830   86.1378   63.5657 H   0  0  0  0  0  0  0  0  0  0  0  0
   69.7672   84.1365   63.9032 H   0  0  0  0  0  0  0  0  0  0  0  0
   71.5263   85.6383   63.8351 H   0  0  0  0  0  0  0  0  0  0  0  0
   71.1909   83.3555   61.3000 H   0  0  0  0  0  0  0  0  0  0  0  0
   69.7227   81.5680   63.2885 H   0  0  0  0  0  0  0  0  0  0  0  0
   71.4954   81.7597   63.2066 H   0  0  0  0  0  0  0  0  0  0  0  0
  1  2  1  0  0  0  0
  1 17  1  0  0  0  0
  2 18  1  0  0  0  0
  2 19  1  0  0  0  0
  3  2  1  6  0  0  0
  3  4  1  0  0  0  0
  3  5  1  0  0  0  0
  3 10  1  0  0  0  0
  4 20  1  0  0  0  0
  5  6  1  0  0  0  0
  5  7  1  0  0  0  0
  5 21  1  6  0  0  0
  6 22  1  0  0  0  0
  7  8  1  0  0  0  0
  7  9  1  0  0  0  0
  7 23  1  1  0  0  0
  8 24  1  0  0  0  0
  9 10  1  0  0  0  0
  9 11  1  0  0  0  0
  9 25  1  6  0  0  0
 11 12  1  0  0  0  0
 11 26  1  0  0  0  0
 11 27  1  0  0  0  0
 12 13  1  0  0  0  0
 13 14  2  0  0  0  0
 13 15  1  0  0  0  0
 13 16  1  0  0  0  0
M  END
$$$$
