FA1
 OpenBabel04091914003D

 21 21  0  0  1  0  0  0  0  0999 V2000
   44.1934    7.4890   26.9530 C   0  0  0  0  0  0  0  0  0  0  0  0
   43.1362    7.7928   25.9059 C   0  0  1  0  0  0  0  0  0  0  0  0
   42.6981    9.1662   25.9900 O   0  0  0  0  0  0  0  0  0  0  0  0
   43.7191    7.5201   24.5085 C   0  0  2  0  0  0  0  0  0  0  0  0
   42.6391    7.6151   23.5815 O   0  0  0  0  0  0  0  0  0  0  0  0
   44.3504    6.1394   24.4560 C   0  0  0  0  0  0  0  0  0  0  0  0
   44.7504    5.4968   25.5283 C   0  0  0  0  0  0  0  0  0  0  0  0
   45.9318    5.7629   27.7773 C   0  0  0  0  0  0  0  0  0  0  0  0
   46.4688    6.7686   28.3244 O   0  0  0  0  0  0  0  0  0  0  0  0
   43.5717    5.1676   27.5379 O   0  0  0  0  0  0  0  0  0  0  0  0
   46.1509    4.5181   27.9844 O   0  0  0  0  0  0  0  0  0  0  0  0
   44.6181    6.0084   26.9359 C   0  0  1  0  0  0  0  0  0  0  0  0
   43.7954    7.7514   27.9378 H   0  0  0  0  0  0  0  0  0  0  0  0
   45.0662    8.1264   26.7541 H   0  0  0  0  0  0  0  0  0  0  0  0
   42.2613    7.1474   26.0531 H   0  0  0  0  0  0  0  0  0  0  0  0
   42.3172    9.3013   26.8753 H   0  0  0  0  0  0  0  0  0  0  0  0
   44.4710    8.2800   24.2524 H   0  0  0  0  0  0  0  0  0  0  0  0
   42.9931    7.4595   22.6982 H   0  0  0  0  0  0  0  0  0  0  0  0
   44.4784    5.6668   23.4809 H   0  0  0  0  0  0  0  0  0  0  0  0
   45.2285    4.5027   25.4670 H   0  0  0  0  0  0  0  0  0  0  0  0
   43.9504    4.2649   27.5726 H   0  0  0  0  0  0  0  0  0  0  0  0
  1  2  1  0  0  0  0
  1 12  1  0  0  0  0
  1 13  1  0  0  0  0
  1 14  1  0  0  0  0
  2  3  1  0  0  0  0
  2  4  1  0  0  0  0
  2 15  1  1  0  0  0
  3 16  1  0  0  0  0
  4  5  1  0  0  0  0
  4  6  1  0  0  0  0
  4 17  1  6  0  0  0
  5 18  1  0  0  0  0
  6  7  2  0  0  0  0
  6 19  1  0  0  0  0
  7 12  1  0  0  0  0
  7 20  1  0  0  0  0
  8  9  2  0  0  0  0
  8 11  1  0  0  0  0
 10 12  1  0  0  0  0
 10 21  1  0  0  0  0
 12  8  1  1  0  0  0
M  END
$$$$
