FFG
 OpenBabel04091912303D

 74 80  0  0  1  0  0  0  0  0999 V2000
   36.6204   33.2617   19.7781 C   0  0  0  0  0  0  0  0  0  0  0  0
   36.8202   27.7438   14.2531 C   0  0  0  0  0  0  0  0  0  0  0  0
   36.8664   34.3829   22.1493 C   0  0  0  0  0  0  0  0  0  0  0  0
   33.5248   28.7385   15.3170 C   0  0  0  0  0  0  0  0  0  0  0  0
   38.6396   28.2839   12.7724 C   0  0  0  0  0  0  0  0  0  0  0  0
   35.4117   31.4498   17.9485 C   0  0  0  0  0  0  0  0  0  0  0  0
   34.8843   28.7768   15.4805 C   0  0  0  0  0  0  0  0  0  0  0  0
   33.3188   27.8674   14.2356 C   0  0  0  0  0  0  0  0  0  0  0  0
   39.1047   28.9870   11.5390 C   0  0  0  0  0  0  0  0  0  0  0  0
   35.5958   29.5691   16.4265 C   0  0  0  0  0  0  0  0  0  0  0  0
   38.9484   30.1903    9.7274 C   0  0  0  0  0  0  0  0  0  0  0  0
   35.3845   32.8349   17.6708 C   0  0  0  0  0  0  0  0  0  0  0  0
   37.2946   28.4080   13.1264 C   0  0  0  0  0  0  0  0  0  0  0  0
   33.4004   30.8011   16.6213 C   0  0  0  0  0  0  0  0  0  0  0  0
   38.9691   36.0009   21.2447 C   0  0  0  0  0  0  0  0  0  0  0  0
   38.5426   36.1350   22.5841 C   0  0  0  0  0  0  0  0  0  0  0  0
   39.0495   26.8254   14.6995 C   0  0  0  0  0  0  0  0  0  0  0  0
   38.3477   35.0759   20.3465 C   0  0  0  0  0  0  0  0  0  0  0  0
   36.6220   31.8469   20.0353 C   0  0  0  0  0  0  0  0  0  0  0  0
   35.9896   33.7323   18.5799 C   0  0  0  0  0  0  0  0  0  0  0  0
   39.5394   27.4927   13.5432 C   0  0  0  0  0  0  0  0  0  0  0  0
   37.4843   35.3273   23.0373 C   0  0  0  0  0  0  0  0  0  0  0  0
   37.6807   26.9581   15.0645 C   0  0  0  0  0  0  0  0  0  0  0  0
   36.0297   30.9397   19.1262 C   0  0  0  0  0  0  0  0  0  0  0  0
   37.2765   34.2432   20.7677 C   0  0  0  0  0  0  0  0  0  0  0  0
   32.6326   29.5350   16.1825 C   0  0  0  0  0  0  0  0  0  0  0  0
   32.2283   34.2915   22.9971 C   0  0  0  0  0  0  0  0  0  0  0  0
   33.3682   33.5392   23.6420 C   0  0  0  0  0  0  0  0  0  0  0  0
   34.0568   35.3291   22.0948 C   0  0  0  0  0  0  0  0  0  0  0  0
   32.7119   34.8088   21.6527 C   0  0  2  0  0  0  0  0  0  0  0  0
   35.7386   33.5314   22.7115 C   0  0  0  0  0  0  0  0  0  0  0  0
   32.0296   27.5381   13.5826 C   0  0  0  0  0  0  0  0  0  0  0  0
   34.4878   27.3921   13.7592 N   0  0  0  0  0  0  0  0  0  0  0  0
   40.2956   28.9471   11.0541 N   0  0  0  0  0  0  0  0  0  0  0  0
   35.4412   27.9237   14.5647 N   0  3  0  0  0  0  0  0  0  0  0  0
   38.2318   29.7593   10.7986 N   0  3  0  0  0  0  0  0  0  0  0  0
   40.2379   29.6992    9.9218 N   0  3  0  0  0  0  0  0  0  0  0  0
   34.7997   30.5624   17.0277 N   0  0  0  0  0  0  0  0  0  0  0  0
   34.5484   34.3238   23.1357 N   0  3  2  0  0  0  0  0  0  0  0  0
   36.7531   29.4055   16.7069 O   0  0  0  0  0  0  0  0  0  0  0  0
   38.5781   30.8429    8.8061 O   0  0  0  0  0  0  0  0  0  0  0  0
   31.9124   35.8957   21.2040 O   0  0  0  0  0  0  0  0  0  0  0  0
   31.0188   27.4853   14.4928 F   0  0  0  0  0  0  0  0  0  0  0  0
   31.7165   28.4988   12.6677 F   0  0  0  0  0  0  0  0  0  0  0  0
   32.0649   26.3509   12.9269 F   0  0  0  0  0  0  0  0  0  0  0  0
   34.9241   33.1974   16.7381 H   0  0  0  0  0  0  0  0  0  0  0  0
   36.6015   29.0141   12.5421 H   0  0  0  0  0  0  0  0  0  0  0  0
   32.8850   31.2367   17.4819 H   0  0  0  0  0  0  0  0  0  0  0  0
   33.3947   31.5072   15.7859 H   0  0  0  0  0  0  0  0  0  0  0  0
   39.7979   36.6233   20.8820 H   0  0  0  0  0  0  0  0  0  0  0  0
   39.0348   36.8564   23.2598 H   0  0  0  0  0  0  0  0  0  0  0  0
   39.7262   26.2079   15.3119 H   0  0  0  0  0  0  0  0  0  0  0  0
   38.7257   35.0099   19.3117 H   0  0  0  0  0  0  0  0  0  0  0  0
   37.0983   31.4582   20.9499 H   0  0  0  0  0  0  0  0  0  0  0  0
   35.9683   34.8077   18.3484 H   0  0  0  0  0  0  0  0  0  0  0  0
   40.6024   27.3899   13.2591 H   0  0  0  0  0  0  0  0  0  0  0  0
   37.1447   35.4182   24.0817 H   0  0  0  0  0  0  0  0  0  0  0  0
   37.3051   26.4404   15.9547 H   0  0  0  0  0  0  0  0  0  0  0  0
   36.0403   29.8518   19.3343 H   0  0  0  0  0  0  0  0  0  0  0  0
   32.3549   28.9495   17.0698 H   0  0  0  0  0  0  0  0  0  0  0  0
   31.7180   29.8296   15.6602 H   0  0  0  0  0  0  0  0  0  0  0  0
   31.9845   35.1510   23.6304 H   0  0  0  0  0  0  0  0  0  0  0  0
   31.3718   33.6443   22.8833 H   0  0  0  0  0  0  0  0  0  0  0  0
   33.4269   32.4859   23.3379 H   0  0  0  0  0  0  0  0  0  0  0  0
   33.3434   33.5858   24.7460 H   0  0  0  0  0  0  0  0  0  0  0  0
   33.9536   36.3008   22.6026 H   0  0  0  0  0  0  0  0  0  0  0  0
   34.7686   35.4191   21.2818 H   0  0  0  0  0  0  0  0  0  0  0  0
   32.7776   34.0382   20.8696 H   0  0  0  0  0  0  0  0  0  0  0  0
   36.0803   33.0114   23.6121 H   0  0  0  0  0  0  0  0  0  0  0  0
   35.3859   32.7988   21.9891 H   0  0  0  0  0  0  0  0  0  0  0  0
   37.2807   29.9920   10.9368 H   0  0  0  0  0  0  0  0  0  0  0  0
   41.0180   29.8642    9.3165 H   0  0  0  0  0  0  0  0  0  0  0  0
   31.0510   35.5718   20.8873 H   0  0  0  0  0  0  0  0  0  0  0  0
   34.8503   34.8922   23.9226 H   0  0  0  0  0  0  0  0  0  0  0  0
  1 19  2  0  0  0  0
  1 20  1  0  0  0  0
  1 25  1  0  0  0  0
  2 13  2  0  0  0  0
  2 23  1  0  0  0  0
  2 35  1  0  0  0  0
  3 22  2  0  0  0  0
  3 25  1  0  0  0  0
  3 31  1  0  0  0  0
  4  7  1  0  0  0  0
  4  8  2  0  0  0  0
  4 26  1  0  0  0  0
  5  9  1  0  0  0  0
  5 13  1  0  0  0  0
  5 21  2  0  0  0  0
  6 12  1  0  0  0  0
  6 24  2  0  0  0  0
  6 38  1  0  0  0  0
  7 10  1  0  0  0  0
  7 35  2  0  0  0  0
  8 32  1  0  0  0  0
  8 33  1  0  0  0  0
  9 34  2  0  0  0  0
  9 36  1  0  0  0  0
 10 38  1  0  0  0  0
 10 40  2  0  0  0  0
 11 36  1  0  0  0  0
 11 37  1  0  0  0  0
 11 41  2  0  0  0  0
 12 20  2  0  0  0  0
 12 46  1  0  0  0  0
 13 47  1  0  0  0  0
 14 26  1  0  0  0  0
 14 38  1  0  0  0  0
 14 48  1  0  0  0  0
 14 49  1  0  0  0  0
 15 16  2  0  0  0  0
 15 18  1  0  0  0  0
 15 50  1  0  0  0  0
 16 22  1  0  0  0  0
 16 51  1  0  0  0  0
 17 21  1  0  0  0  0
 17 23  2  0  0  0  0
 17 52  1  0  0  0  0
 18 25  2  0  0  0  0
 18 53  1  0  0  0  0
 19 24  1  0  0  0  0
 19 54  1  0  0  0  0
 20 55  1  0  0  0  0
 21 56  1  0  0  0  0
 22 57  1  0  0  0  0
 23 58  1  0  0  0  0
 24 59  1  0  0  0  0
 26 60  1  0  0  0  0
 26 61  1  0  0  0  0
 27 28  1  0  0  0  0
 27 30  1  0  0  0  0
 27 62  1  0  0  0  0
 27 63  1  0  0  0  0
 28 39  1  0  0  0  0
 28 64  1  0  0  0  0
 28 65  1  0  0  0  0
 29 30  1  0  0  0  0
 29 39  1  0  0  0  0
 29 66  1  0  0  0  0
 29 67  1  0  0  0  0
 30 42  1  0  0  0  0
 30 68  1  6  0  0  0
 31 39  1  0  0  0  0
 31 69  1  0  0  0  0
 31 70  1  0  0  0  0
 32 43  1  0  0  0  0
 32 44  1  0  0  0  0
 32 45  1  0  0  0  0
 33 35  1  0  0  0  0
 34 37  1  0  0  0  0
 36 71  1  0  0  0  0
 37 72  1  0  0  0  0
 39 74  1  1  0  0  0
 42 73  1  0  0  0  0
M  CHG  4  35   1  36   1  37   1  39   1
M  END
$$$$
