FG2
 OpenBabel04091913143D

 39 41  0  0  1  0  0  0  0  0999 V2000
   10.8945    9.4131   -5.0447 C   0  0  0  0  0  0  0  0  0  0  0  0
   20.2140    7.6931    4.4282 C   0  0  0  0  0  0  0  0  0  0  0  0
   16.6917   11.2274    0.9787 O   0  0  0  0  0  0  0  0  0  0  0  0
   14.1982   10.3340    4.3162 O   0  0  0  0  0  0  0  0  0  0  0  0
   15.4798   12.3519    3.6468 O   0  0  0  0  0  0  0  0  0  0  0  0
   19.1176    9.9229    4.1131 C   0  0  0  0  0  0  0  0  0  0  0  0
   17.9744   10.6746    3.8805 C   0  0  0  0  0  0  0  0  0  0  0  0
   14.5115    9.8566   -4.8486 C   0  0  0  0  0  0  0  0  0  0  0  0
   15.5223   10.1077   -3.9208 C   0  0  0  0  0  0  0  0  0  0  0  0
   17.7834    7.9322    3.9963 C   0  0  0  0  0  0  0  0  0  0  0  0
   12.8143    9.9803   -3.1460 C   0  0  0  0  0  0  0  0  0  0  0  0
   13.7578   10.4278   -0.8354 C   0  0  0  0  0  0  0  0  0  0  0  0
   16.6469    8.6303    3.7532 N   0  0  0  0  0  0  0  0  0  0  0  0
   14.6949   10.6625    1.9041 N   0  0  0  0  0  0  0  0  0  0  0  0
   15.8797   10.5024   -1.5012 N   0  3  0  0  0  0  0  0  0  0  0  0
   12.2582    9.5583   -5.4555 O   0  0  0  0  0  0  0  0  0  0  0  0
   15.5596   10.8683    0.8635 C   0  0  0  0  0  0  0  0  0  0  0  0
   19.0209    8.5335    4.1764 C   0  0  0  0  0  0  0  0  0  0  0  0
   13.1710    9.7949   -4.4666 C   0  0  1  0  0  0  0  0  0  0  0  0
   16.7733    9.9993    3.7035 C   0  0  0  0  0  0  0  0  0  0  0  0
   15.0352   10.6015   -0.4344 C   0  0  1  0  0  0  0  0  0  0  0  0
   13.8064   10.2163   -2.2066 C   0  0  1  0  0  0  0  0  0  0  0  0
   15.1286   10.2690   -2.6078 C   0  0  1  0  0  0  0  0  0  0  0  0
   15.2143   10.9525    3.4745 S   0  0  0  0  0  0  0  0  0  0  0  0
   10.2773    9.2316   -5.9342 H   0  0  0  0  0  0  0  0  0  0  0  0
   10.5269   10.3245   -4.5587 H   0  0  0  0  0  0  0  0  0  0  0  0
   10.7788    8.5569   -4.3694 H   0  0  0  0  0  0  0  0  0  0  0  0
   21.0824    8.3463    4.5419 H   0  0  0  0  0  0  0  0  0  0  0  0
   20.3475    7.0294    3.5722 H   0  0  0  0  0  0  0  0  0  0  0  0
   20.0427    7.1256    5.3443 H   0  0  0  0  0  0  0  0  0  0  0  0
   20.0838   10.4028    4.2488 H   0  0  0  0  0  0  0  0  0  0  0  0
   18.0337   11.7527    3.8327 H   0  0  0  0  0  0  0  0  0  0  0  0
   14.8033    9.7052   -5.8813 H   0  0  0  0  0  0  0  0  0  0  0  0
   16.5637   10.1855   -4.1772 H   0  0  0  0  0  0  0  0  0  0  0  0
   17.7169    6.8455    4.0494 H   0  0  0  0  0  0  0  0  0  0  0  0
   11.8044    9.9499   -2.7831 H   0  0  0  0  0  0  0  0  0  0  0  0
   12.8637   10.4491   -0.2233 H   0  0  0  0  0  0  0  0  0  0  0  0
   13.7626   10.2992    1.7253 H   0  0  0  0  0  0  0  0  0  0  0  0
   16.8841   10.5828   -1.4677 H   0  0  0  0  0  0  0  0  0  0  0  0
  1 16  1  0  0  0  0
  1 25  1  0  0  0  0
  1 26  1  0  0  0  0
  1 27  1  0  0  0  0
  2 18  1  0  0  0  0
  2 28  1  0  0  0  0
  2 29  1  0  0  0  0
  2 30  1  0  0  0  0
  3 17  2  0  0  0  0
  4 24  2  0  0  0  0
  5 24  2  0  0  0  0
  6  7  2  0  0  0  0
  6 18  1  0  0  0  0
  6 31  1  0  0  0  0
  7 20  1  0  0  0  0
  7 32  1  0  0  0  0
  8  9  1  0  0  0  0
  8 19  1  0  0  0  0
  8 33  1  0  0  0  0
  9 34  1  0  0  0  0
 10 13  1  0  0  0  0
 10 18  2  0  0  0  0
 10 35  1  0  0  0  0
 11 19  1  0  0  0  0
 11 36  1  0  0  0  0
 12 21  1  0  0  0  0
 12 22  1  0  0  0  0
 12 37  1  0  0  0  0
 13 20  2  0  0  0  0
 14 17  1  0  0  0  0
 14 24  1  0  0  0  0
 14 38  1  0  0  0  0
 15 21  1  0  0  0  0
 15 23  1  0  0  0  0
 15 39  1  0  0  0  0
 19 16  1  6  0  0  0
 20 24  1  0  0  0  0
 21 17  1  6  0  0  0
 22 11  1  1  0  0  0
 22 23  1  0  0  0  0
 23  9  1  6  0  0  0
M  CHG  1  15   1
M  END
$$$$
