FG5
 OpenBabel04091913143D

 46 49  0  0  1  0  0  0  0  0999 V2000
    2.1985  -13.3147   38.6598 C   0  0  0  0  0  0  0  0  0  0  0  0
    1.1011  -10.9904   38.7422 N   0  3  2  0  0  0  0  0  0  0  0  0
    3.3306  -13.8722   38.7844 O   0  0  0  0  0  0  0  0  0  0  0  0
    2.1559  -11.8993   39.1854 C   0  0  0  0  0  0  0  0  0  0  0  0
   -2.9967   -6.7773   41.0025 C   0  0  0  0  0  0  0  0  0  0  0  0
   -0.7830  -10.0498   33.9495 O   0  0  0  0  0  0  0  0  0  0  0  0
    0.2323  -12.3669   33.8326 O   0  0  0  0  0  0  0  0  0  0  0  0
    2.4027   -9.9923   27.8859 C   0  0  0  0  0  0  0  0  0  0  0  0
    3.5077   -9.4661   28.5649 C   0  0  0  0  0  0  0  0  0  0  0  0
   -0.6964   -9.4657   41.6607 C   0  0  0  0  0  0  0  0  0  0  0  0
    1.3054  -10.4984   28.5927 C   0  0  0  0  0  0  0  0  0  0  0  0
    3.5467   -9.4252   29.9676 C   0  0  0  0  0  0  0  0  0  0  0  0
    0.2268  -10.3004   41.0304 C   0  0  0  0  0  0  0  0  0  0  0  0
   -1.4329   -8.5990   39.5274 C   0  0  0  0  0  0  0  0  0  0  0  0
   -0.1776   -9.6568   37.4985 C   0  0  0  0  0  0  0  0  0  0  0  0
    0.4493  -10.8654   31.0117 C   0  0  0  0  0  0  0  0  0  0  0  0
    1.4985  -11.2748   36.2672 C   0  0  0  0  0  0  0  0  0  0  0  0
    1.4665  -10.4631   35.0385 N   0  0  0  0  0  0  0  0  0  0  0  0
   -2.3700   -7.8546   41.6812 O   0  0  0  0  0  0  0  0  0  0  0  0
    2.2642   -9.9825   31.9980 O   0  0  0  0  0  0  0  0  0  0  0  0
   -1.5149   -8.6150   40.9270 C   0  0  1  0  0  0  0  0  0  0  0  0
    0.8383  -10.6026   37.4311 C   0  0  2  0  0  0  0  0  0  0  0  0
    1.0334  -10.5744   32.2363 C   0  0  2  0  0  0  0  0  0  0  0  0
    1.3291  -10.4603   29.9931 C   0  0  1  0  0  0  0  0  0  0  0  0
   -0.5035   -9.4337   38.8663 C   0  0  2  0  0  0  0  0  0  0  0  0
    2.4379   -9.9271   30.6404 C   0  0  2  0  0  0  0  0  0  0  0  0
    0.3083  -10.2713   39.6270 C   0  0  2  0  0  0  0  0  0  0  0  0
    0.3629  -10.9285   33.8705 S   0  0  0  0  0  0  0  0  0  0  0  0
    1.1404  -13.7935   38.1722 O   0  0  0  0  0  0  0  0  0  0  0  0
    3.1000  -11.3815   38.9777 H   0  0  0  0  0  0  0  0  0  0  0  0
    2.0834  -12.0061   40.2710 H   0  0  0  0  0  0  0  0  0  0  0  0
   -3.5930   -6.2197   41.7303 H   0  0  0  0  0  0  0  0  0  0  0  0
   -3.6783   -7.1426   40.2278 H   0  0  0  0  0  0  0  0  0  0  0  0
   -2.2491   -6.0936   40.5854 H   0  0  0  0  0  0  0  0  0  0  0  0
    2.3914  -10.0187   26.7979 H   0  0  0  0  0  0  0  0  0  0  0  0
    4.3463   -9.0880   27.9896 H   0  0  0  0  0  0  0  0  0  0  0  0
   -0.7746   -9.4888   42.7448 H   0  0  0  0  0  0  0  0  0  0  0  0
    0.4492  -10.9170   28.0665 H   0  0  0  0  0  0  0  0  0  0  0  0
    4.4019   -9.0248   30.4974 H   0  0  0  0  0  0  0  0  0  0  0  0
    0.8448  -10.9642   41.6255 H   0  0  0  0  0  0  0  0  0  0  0  0
   -2.0732   -7.9734   38.9188 H   0  0  0  0  0  0  0  0  0  0  0  0
   -0.6593   -9.1904   36.6501 H   0  0  0  0  0  0  0  0  0  0  0  0
   -0.5154  -11.3436   30.9036 H   0  0  0  0  0  0  0  0  0  0  0  0
    2.5591  -11.4289   36.4881 H   0  0  0  0  0  0  0  0  0  0  0  0
    1.0512  -12.2579   36.1102 H   0  0  0  0  0  0  0  0  0  0  0  0
    1.5740   -9.4624   35.1710 H   0  0  0  0  0  0  0  0  0  0  0  0
  1  3  2  0  0  0  0
  1  4  1  0  0  0  0
  1 29  1  0  0  0  0
  2  4  1  1  0  0  0
  2 22  1  0  0  0  0
  2 27  1  0  0  0  0
  4 30  1  0  0  0  0
  4 31  1  0  0  0  0
  5 19  1  0  0  0  0
  5 32  1  0  0  0  0
  5 33  1  0  0  0  0
  5 34  1  0  0  0  0
  6 28  2  0  0  0  0
  7 28  2  0  0  0  0
  8  9  1  0  0  0  0
  8 11  1  0  0  0  0
  8 35  1  0  0  0  0
  9 12  1  0  0  0  0
  9 36  1  0  0  0  0
 10 13  1  0  0  0  0
 10 21  1  0  0  0  0
 10 37  1  0  0  0  0
 11 38  1  0  0  0  0
 12 39  1  0  0  0  0
 13 40  1  0  0  0  0
 14 21  1  0  0  0  0
 14 41  1  0  0  0  0
 15 22  1  0  0  0  0
 15 25  1  0  0  0  0
 15 42  1  0  0  0  0
 16 23  1  0  0  0  0
 16 24  1  0  0  0  0
 16 43  1  0  0  0  0
 17 18  1  0  0  0  0
 17 44  1  0  0  0  0
 17 45  1  0  0  0  0
 18 28  1  0  0  0  0
 18 46  1  0  0  0  0
 20 23  1  0  0  0  0
 20 26  1  0  0  0  0
 21 19  1  6  0  0  0
 22 17  1  6  0  0  0
 23 28  1  1  0  0  0
 24 11  1  1  0  0  0
 24 26  1  0  0  0  0
 25 14  1  6  0  0  0
 25 27  1  0  0  0  0
 26 12  1  1  0  0  0
 27 13  1  6  0  0  0
M  CHG  1   2   1
M  END
$$$$
