FG6
 OpenBabel04091913143D

 45 48  0  0  1  0  0  0  0  0999 V2000
   18.6735   11.0594   -0.9480 C   0  0  0  0  0  0  0  0  0  0  0  0
   16.2167   10.3367   -1.4007 N   0  3  2  0  0  0  0  0  0  0  0  0
   18.2821   12.1966   -0.5702 O   0  0  0  0  0  0  0  0  0  0  0  0
   17.6530   10.1354   -1.5607 C   0  0  0  0  0  0  0  0  0  0  0  0
   11.0907    9.7609   -4.9967 C   0  0  0  0  0  0  0  0  0  0  0  0
   17.0096   10.3458    1.3000 O   0  0  0  0  0  0  0  0  0  0  0  0
   15.0653   13.0707    3.7240 O   0  0  0  0  0  0  0  0  0  0  0  0
   17.0471   11.6171    3.5746 O   0  0  0  0  0  0  0  0  0  0  0  0
   13.2589    8.7659    8.1952 C   0  0  0  0  0  0  0  0  0  0  0  0
   12.9811    7.7425    7.2961 C   0  0  0  0  0  0  0  0  0  0  0  0
   14.6976    9.8797   -4.7156 C   0  0  0  0  0  0  0  0  0  0  0  0
   13.8665    9.9083    7.7546 C   0  0  0  0  0  0  0  0  0  0  0  0
   13.3072    7.8645    5.9242 C   0  0  0  0  0  0  0  0  0  0  0  0
   15.7165    9.9539   -3.7908 C   0  0  0  0  0  0  0  0  0  0  0  0
   13.0645   10.3344   -3.0133 C   0  0  0  0  0  0  0  0  0  0  0  0
   14.7824   11.0219    5.7545 C   0  0  0  0  0  0  0  0  0  0  0  0
   14.1117   10.6455   -0.7054 C   0  0  0  0  0  0  0  0  0  0  0  0
   15.0734   11.3868    1.8505 N   0  0  0  0  0  0  0  0  0  0  0  0
   12.4624    9.9500   -5.3453 O   0  0  0  0  0  0  0  0  0  0  0  0
   14.3285    9.4130    4.2462 O   0  0  0  0  0  0  0  0  0  0  0  0
   15.9563   10.7618    0.9874 C   0  0  0  0  0  0  0  0  0  0  0  0
   13.3735   10.0557   -4.3339 C   0  0  1  0  0  0  0  0  0  0  0  0
   14.8853   10.6755    4.4413 C   0  0  2  0  0  0  0  0  0  0  0  0
   15.4208   10.5910   -0.3180 C   0  0  2  0  0  0  0  0  0  0  0  0
   14.1851   10.0068    6.4160 C   0  0  2  0  0  0  0  0  0  0  0  0
   14.0859   10.4117   -2.0692 C   0  0  1  0  0  0  0  0  0  0  0  0
   13.9168    9.0231    5.4942 C   0  0  1  0  0  0  0  0  0  0  0  0
   15.3879   10.2165   -2.4754 C   0  0  2  0  0  0  0  0  0  0  0  0
   15.6413   11.7885    3.3211 S   0  0  0  0  0  0  0  0  0  0  0  0
   19.8507   10.5842   -0.9318 O   0  0  0  0  0  0  0  0  0  0  0  0
   17.8662    9.1124   -1.2424 H   0  0  0  0  0  0  0  0  0  0  0  0
   17.8477   10.1820   -2.6435 H   0  0  0  0  0  0  0  0  0  0  0  0
   10.4983    9.6945   -5.9254 H   0  0  0  0  0  0  0  0  0  0  0  0
   10.7123   10.6040   -4.4132 H   0  0  0  0  0  0  0  0  0  0  0  0
   10.9590    8.8263   -4.4413 H   0  0  0  0  0  0  0  0  0  0  0  0
   13.0134    8.6944    9.2387 H   0  0  0  0  0  0  0  0  0  0  0  0
   12.5050    6.8356    7.6547 H   0  0  0  0  0  0  0  0  0  0  0  0
   14.9605    9.6699   -5.7413 H   0  0  0  0  0  0  0  0  0  0  0  0
   14.1181   10.7520    8.3789 H   0  0  0  0  0  0  0  0  0  0  0  0
   13.0883    7.0742    5.2332 H   0  0  0  0  0  0  0  0  0  0  0  0
   16.7458    9.8193   -4.0649 H   0  0  0  0  0  0  0  0  0  0  0  0
   12.0690   10.4971   -2.6553 H   0  0  0  0  0  0  0  0  0  0  0  0
   15.1293   11.9425    6.1642 H   0  0  0  0  0  0  0  0  0  0  0  0
   13.2459   10.8237   -0.0876 H   0  0  0  0  0  0  0  0  0  0  0  0
   14.1606   11.6770    1.5405 H   0  0  0  0  0  0  0  0  0  0  0  0
  1  3  2  0  0  0  0
  1  4  1  0  0  0  0
  1 30  1  0  0  0  0
  2  4  1  1  0  0  0
  2 24  1  0  0  0  0
  2 28  1  0  0  0  0
  4 31  1  0  0  0  0
  4 32  1  0  0  0  0
  5 19  1  0  0  0  0
  5 33  1  0  0  0  0
  5 34  1  0  0  0  0
  5 35  1  0  0  0  0
  6 21  2  0  0  0  0
  7 29  2  0  0  0  0
  8 29  2  0  0  0  0
  9 10  1  0  0  0  0
  9 12  1  0  0  0  0
  9 36  1  0  0  0  0
 10 13  1  0  0  0  0
 10 37  1  0  0  0  0
 11 14  1  0  0  0  0
 11 22  1  0  0  0  0
 11 38  1  0  0  0  0
 12 39  1  0  0  0  0
 13 40  1  0  0  0  0
 14 41  1  0  0  0  0
 15 22  1  0  0  0  0
 15 42  1  0  0  0  0
 16 23  1  0  0  0  0
 16 25  1  0  0  0  0
 16 43  1  0  0  0  0
 17 24  1  0  0  0  0
 17 26  1  0  0  0  0
 17 44  1  0  0  0  0
 18 21  1  0  0  0  0
 18 29  1  0  0  0  0
 18 45  1  0  0  0  0
 20 23  1  0  0  0  0
 20 27  1  0  0  0  0
 22 19  1  6  0  0  0
 23 29  1  1  0  0  0
 24 21  1  6  0  0  0
 25 12  1  6  0  0  0
 25 27  1  0  0  0  0
 26 15  1  1  0  0  0
 26 28  1  0  0  0  0
 27 13  1  6  0  0  0
 28 14  1  6  0  0  0
M  CHG  1   2   1
M  END
$$$$
