FHB
 OpenBabel04091914323D

 15 15  0  0  0  0  0  0  0  0999 V2000
   14.9075   12.3654   40.6401 C   0  0  0  0  0  0  0  0  0  0  0  0
   15.4897   11.3414   39.8747 C   0  0  0  0  0  0  0  0  0  0  0  0
   15.0043   10.0412   39.9376 C   0  0  0  0  0  0  0  0  0  0  0  0
   15.6016    9.0782   39.2206 F   0  0  0  0  0  0  0  0  0  0  0  0
   13.9215    9.7333   40.7534 C   0  0  0  0  0  0  0  0  0  0  0  0
   13.4466    8.4497   40.7645 O   0  0  0  0  0  0  0  0  0  0  0  0
   13.3178   10.7241   41.5233 C   0  0  0  0  0  0  0  0  0  0  0  0
   13.8060   12.0373   41.4632 C   0  0  0  0  0  0  0  0  0  0  0  0
   15.4676   13.7716   40.5708 C   0  0  0  0  0  0  0  0  0  0  0  0
   16.4472   13.9633   39.7853 O   0  0  0  0  0  0  0  0  0  0  0  0
   14.9173   14.6509   41.3107 O   0  0  0  0  0  0  0  0  0  0  0  0
   16.3243   11.5709   39.2175 H   0  0  0  0  0  0  0  0  0  0  0  0
   13.5461    8.1255   41.6738 H   0  0  0  0  0  0  0  0  0  0  0  0
   12.4635   10.4974   42.1539 H   0  0  0  0  0  0  0  0  0  0  0  0
   13.3336   12.8290   42.0508 H   0  0  0  0  0  0  0  0  0  0  0  0
  1  9  1  0  0  0  0
  1  8  2  0  0  0  0
  1  2  1  0  0  0  0
  2  3  2  0  0  0  0
  2 12  1  0  0  0  0
  3  5  1  0  0  0  0
  3  4  1  0  0  0  0
  5  7  2  0  0  0  0
  5  6  1  0  0  0  0
  6 13  1  0  0  0  0
  7  8  1  0  0  0  0
  7 14  1  0  0  0  0
  8 15  1  0  0  0  0
  9 11  2  0  0  0  0
  9 10  1  0  0  0  0
M  END
$$$$
