FM8
 OpenBabel04091916423D

 48 50  0  0  1  0  0  0  0  0999 V2000
   39.2905   22.0281   23.6550 C   0  0  0  0  0  0  0  0  0  0  0  0
   39.9910   21.5267   24.7291 N   0  0  0  0  0  0  0  0  0  0  0  0
   38.0646   21.9522   23.5555 O   0  0  0  0  0  0  0  0  0  0  0  0
   45.8299   24.4233   24.3715 Cl  0  0  0  0  0  0  0  0  0  0  0  0
   41.3752   21.7639   25.1344 C   0  0  0  0  0  0  0  0  0  0  0  0
   40.6906   25.1606   24.8400 N   0  3  0  0  0  0  0  0  0  0  0  0
   39.1813   21.0988   25.8113 O   0  0  0  0  0  0  0  0  0  0  0  0
   45.8900   24.3809   21.1227 Cl  0  0  0  0  0  0  0  0  0  0  0  0
   42.1868   20.4959   25.3920 C   0  0  0  0  0  0  0  0  0  0  0  0
   41.8995   25.7111   24.6058 N   0  0  0  0  0  0  0  0  0  0  0  0
   42.9540   20.0280   24.1424 C   0  0  1  0  0  0  0  0  0  0  0  0
   41.6450   25.1693   26.8065 N   0  0  0  0  0  0  0  0  0  0  0  0
   43.7720   21.1150   23.4434 C   0  0  0  0  0  0  0  0  0  0  0  0
   44.4364   22.1362   24.1438 C   0  0  0  0  0  0  0  0  0  0  0  0
   45.0942   23.1546   23.4511 C   0  0  0  0  0  0  0  0  0  0  0  0
   45.1203   23.1395   22.0522 C   0  0  0  0  0  0  0  0  0  0  0  0
   44.5056   22.1003   21.3532 C   0  0  0  0  0  0  0  0  0  0  0  0
   43.8422   21.0919   22.0480 C   0  0  0  0  0  0  0  0  0  0  0  0
   40.0300   22.7531   22.6007 C   0  0  0  0  0  0  0  0  0  0  0  0
   40.2041   24.1495   22.6496 C   0  0  0  0  0  0  0  0  0  0  0  0
   40.9201   24.7659   21.5955 C   0  0  0  0  0  0  0  0  0  0  0  0
   41.4280   24.0231   20.5403 C   0  0  0  0  0  0  0  0  0  0  0  0
   41.2253   22.6392   20.5022 C   0  0  0  0  0  0  0  0  0  0  0  0
   40.5252   22.0035   21.5255 C   0  0  0  0  0  0  0  0  0  0  0  0
   39.7029   25.0028   23.7841 C   0  0  0  0  0  0  0  0  0  0  0  0
   42.4702   25.6075   25.8102 C   0  0  0  0  0  0  0  0  0  0  0  0
   40.5322   24.8900   26.1656 C   0  0  0  0  0  0  0  0  0  0  0  0
   43.9484   18.3865   24.4626 P   0  0  0  0  0  0  0  0  0  0  0  0
   43.6822   18.0871   25.9328 O   0  0  0  0  0  0  0  0  0  0  0  0
   43.2801   17.4401   23.4684 O   0  0  0  0  0  0  0  0  0  0  0  0
   45.3888   18.7585   24.1309 O   0  0  0  0  0  0  0  0  0  0  0  0
   41.3475   22.3493   26.0574 H   0  0  0  0  0  0  0  0  0  0  0  0
   41.8363   22.4006   24.3816 H   0  0  0  0  0  0  0  0  0  0  0  0
   38.3657   20.8271   25.3449 H   0  0  0  0  0  0  0  0  0  0  0  0
   41.5366   19.6885   25.7505 H   0  0  0  0  0  0  0  0  0  0  0  0
   42.9019   20.6917   26.2005 H   0  0  0  0  0  0  0  0  0  0  0  0
   42.1828   19.6926   23.4348 H   0  0  0  0  0  0  0  0  0  0  0  0
   44.4284   22.1334   25.2305 H   0  0  0  0  0  0  0  0  0  0  0  0
   44.5275   22.0631   20.2702 H   0  0  0  0  0  0  0  0  0  0  0  0
   43.3722   20.2680   21.5122 H   0  0  0  0  0  0  0  0  0  0  0  0
   41.1268   25.8329   21.6361 H   0  0  0  0  0  0  0  0  0  0  0  0
   42.0152   24.5019   19.7620 H   0  0  0  0  0  0  0  0  0  0  0  0
   41.6515   22.0503   19.6922 H   0  0  0  0  0  0  0  0  0  0  0  0
   40.4042   20.9238   21.5071 H   0  0  0  0  0  0  0  0  0  0  0  0
   39.4661   26.0125   23.4283 H   0  0  0  0  0  0  0  0  0  0  0  0
   38.7843   24.6012   24.2226 H   0  0  0  0  0  0  0  0  0  0  0  0
   43.5068   25.8739   25.9714 H   0  0  0  0  0  0  0  0  0  0  0  0
   39.6339   24.4673   26.5923 H   0  0  0  0  0  0  0  0  0  0  0  0
  1  2  1  0  0  0  0
  1  3  2  0  0  0  0
  1 19  1  0  0  0  0
  2  5  1  0  0  0  0
  2  7  1  0  0  0  0
  4 15  1  0  0  0  0
  5  9  1  0  0  0  0
  5 32  1  0  0  0  0
  5 33  1  0  0  0  0
  6 10  1  0  0  0  0
  6 25  1  0  0  0  0
  6 27  2  0  0  0  0
  7 34  1  0  0  0  0
  8 16  1  0  0  0  0
  9 11  1  0  0  0  0
  9 35  1  0  0  0  0
  9 36  1  0  0  0  0
 10 26  1  0  0  0  0
 11 13  1  0  0  0  0
 11 28  1  0  0  0  0
 11 37  1  6  0  0  0
 12 26  2  0  0  0  0
 12 27  1  0  0  0  0
 13 14  2  0  0  0  0
 13 18  1  0  0  0  0
 14 15  1  0  0  0  0
 14 38  1  0  0  0  0
 15 16  2  0  0  0  0
 16 17  1  0  0  0  0
 17 18  2  0  0  0  0
 17 39  1  0  0  0  0
 18 40  1  0  0  0  0
 19 20  2  0  0  0  0
 19 24  1  0  0  0  0
 20 21  1  0  0  0  0
 20 25  1  0  0  0  0
 21 22  2  0  0  0  0
 21 41  1  0  0  0  0
 22 23  1  0  0  0  0
 22 42  1  0  0  0  0
 23 24  2  0  0  0  0
 23 43  1  0  0  0  0
 24 44  1  0  0  0  0
 25 45  1  0  0  0  0
 25 46  1  0  0  0  0
 26 47  1  0  0  0  0
 27 48  1  0  0  0  0
 28 29  2  0  0  0  0
 28 30  1  0  0  0  0
 28 31  1  0  0  0  0
M  CHG  1   6   1
M  END
$$$$
