FNA
 OpenBabel04091915093D

 30 32  0  0  0  0  0  0  0  0999 V2000
   -5.3578   -7.2704   11.4730 C   0  0  0  0  0  0  0  0  0  0  0  0
   -8.6391   -6.3829    9.9165 N   0  0  0  0  0  0  0  0  0  0  0  0
   -6.6117   -7.4034   10.8764 C   0  0  0  0  0  0  0  0  0  0  0  0
   -4.7947   -6.0101   11.6103 C   0  0  0  0  0  0  0  0  0  0  0  0
   -7.3247   -6.2843   10.4154 C   0  0  0  0  0  0  0  0  0  0  0  0
   -5.4885   -4.8854   11.1687 C   0  0  0  0  0  0  0  0  0  0  0  0
   -6.7473   -5.0205   10.5808 C   0  0  0  0  0  0  0  0  0  0  0  0
   -9.7850   -8.2930   10.9843 C   0  0  0  0  0  0  0  0  0  0  0  0
  -10.4368   -9.5393   10.8382 C   0  0  0  0  0  0  0  0  0  0  0  0
   -9.4392   -7.5474    9.8284 C   0  0  0  0  0  0  0  0  0  0  0  0
  -10.8347   -9.9663    9.5617 C   0  0  0  0  0  0  0  0  0  0  0  0
   -9.7900   -8.0331    8.5598 C   0  0  0  0  0  0  0  0  0  0  0  0
  -10.5262   -9.2026    8.4292 C   0  0  0  0  0  0  0  0  0  0  0  0
  -10.2524   -9.9118   13.2467 C   0  0  0  0  0  0  0  0  0  0  0  0
  -10.6478  -10.3342   11.9788 C   0  0  0  0  0  0  0  0  0  0  0  0
   -9.4771   -7.8498   12.2951 C   0  0  0  0  0  0  0  0  0  0  0  0
   -9.6852   -8.6567   13.4049 C   0  0  0  0  0  0  0  0  0  0  0  0
   -4.8406   -8.1541   11.8377 H   0  0  0  0  0  0  0  0  0  0  0  0
   -8.9487   -5.6138    9.3371 H   0  0  0  0  0  0  0  0  0  0  0  0
   -7.0358   -8.4014   10.7967 H   0  0  0  0  0  0  0  0  0  0  0  0
   -3.8170   -5.9009   12.0767 H   0  0  0  0  0  0  0  0  0  0  0  0
   -5.0522   -3.8976   11.2937 H   0  0  0  0  0  0  0  0  0  0  0  0
   -7.2853   -4.1272   10.2736 H   0  0  0  0  0  0  0  0  0  0  0  0
  -11.3717  -10.9013    9.4352 H   0  0  0  0  0  0  0  0  0  0  0  0
   -9.4375   -7.5233    7.6605 H   0  0  0  0  0  0  0  0  0  0  0  0
  -10.8426   -9.5456    7.4497 H   0  0  0  0  0  0  0  0  0  0  0  0
  -10.3880  -10.5596   14.1080 H   0  0  0  0  0  0  0  0  0  0  0  0
  -11.1148  -11.3202   11.8740 H   0  0  0  0  0  0  0  0  0  0  0  0
   -9.0374   -6.8697   12.4464 H   0  0  0  0  0  0  0  0  0  0  0  0
   -9.3778   -8.3039   14.3868 H   0  0  0  0  0  0  0  0  0  0  0  0
  1  3  2  0  0  0  0
  1  4  1  0  0  0  0
  1 18  1  0  0  0  0
  2  5  1  0  0  0  0
  2 10  1  0  0  0  0
  2 19  1  0  0  0  0
  3  5  1  0  0  0  0
  3 20  1  0  0  0  0
  4  6  2  0  0  0  0
  4 21  1  0  0  0  0
  5  7  2  0  0  0  0
  6  7  1  0  0  0  0
  6 22  1  0  0  0  0
  7 23  1  0  0  0  0
  8  9  2  0  0  0  0
  8 10  1  0  0  0  0
  8 16  1  0  0  0  0
  9 11  1  0  0  0  0
  9 15  1  0  0  0  0
 10 12  2  0  0  0  0
 11 13  2  0  0  0  0
 11 24  1  0  0  0  0
 12 13  1  0  0  0  0
 12 25  1  0  0  0  0
 13 26  1  0  0  0  0
 14 15  2  0  0  0  0
 14 17  1  0  0  0  0
 14 27  1  0  0  0  0
 15 28  1  0  0  0  0
 16 17  2  0  0  0  0
 16 29  1  0  0  0  0
 17 30  1  0  0  0  0
M  END
$$$$
