FU5
 OpenBabel04091914563D

 38 39  0  0  0  0  0  0  0  0999 V2000
   13.7835   -1.3902   51.4465 C   0  0  0  0  0  0  0  0  0  0  0  0
   15.0891   -1.6033   50.7982 C   0  0  0  0  0  0  0  0  0  0  0  0
   13.6415   -1.5904   52.8478 C   0  0  0  0  0  0  0  0  0  0  0  0
   12.6259   -1.0685   50.7039 C   0  0  0  0  0  0  0  0  0  0  0  0
   15.6402   -2.8717   50.7315 C   0  0  0  0  0  0  0  0  0  0  0  0
   15.7342   -0.5162   50.3185 N   0  0  0  0  0  0  0  0  0  0  0  0
   12.3913   -1.4819   53.4621 C   0  0  0  0  0  0  0  0  0  0  0  0
   14.8066   -1.8902   53.5006 O   0  0  0  0  0  0  0  0  0  0  0  0
   11.3843   -0.9567   51.3269 C   0  0  0  0  0  0  0  0  0  0  0  0
   12.6738   -0.8632   48.9853 Cl  0  0  0  0  0  0  0  0  0  0  0  0
   16.8825   -2.9774   50.1601 C   0  0  0  0  0  0  0  0  0  0  0  0
   16.9447   -0.7222   49.7757 C   0  0  0  0  0  0  0  0  0  0  0  0
   11.2642   -1.1658   52.7017 C   0  0  0  0  0  0  0  0  0  0  0  0
   14.8244   -2.1556   54.8983 C   0  0  0  0  0  0  0  0  0  0  0  0
   17.5401   -1.9100   49.6757 N   0  0  0  0  0  0  0  0  0  0  0  0
   17.5568   -4.3173   50.0888 C   0  0  0  0  0  0  0  0  0  0  0  0
   17.6340    0.3684   49.3316 N   0  0  0  0  0  0  0  0  0  0  0  0
   16.2773   -2.4992   55.2683 C   0  0  0  0  0  0  0  0  0  0  0  0
   16.8363   -3.6260   54.3910 C   0  0  0  0  0  0  0  0  0  0  0  0
   18.2758   -3.9676   54.6866 C   0  0  0  0  0  0  0  0  0  0  0  0
   18.4475   -4.3053   55.9874 F   0  0  0  0  0  0  0  0  0  0  0  0
   18.6603   -5.0285   53.9326 F   0  0  0  0  0  0  0  0  0  0  0  0
   19.1010   -2.9418   54.4068 F   0  0  0  0  0  0  0  0  0  0  0  0
   15.1206   -3.7347   51.1374 H   0  0  0  0  0  0  0  0  0  0  0  0
   12.2642   -1.6380   54.5265 H   0  0  0  0  0  0  0  0  0  0  0  0
   10.4998   -0.7188   50.7378 H   0  0  0  0  0  0  0  0  0  0  0  0
   10.2861   -1.0846   53.1712 H   0  0  0  0  0  0  0  0  0  0  0  0
   14.1720   -3.0029   55.1413 H   0  0  0  0  0  0  0  0  0  0  0  0
   14.5040   -1.2697   55.4594 H   0  0  0  0  0  0  0  0  0  0  0  0
   18.5327   -4.2426   49.6042 H   0  0  0  0  0  0  0  0  0  0  0  0
   16.9395   -5.0192   49.5265 H   0  0  0  0  0  0  0  0  0  0  0  0
   17.7089   -4.7083   51.1035 H   0  0  0  0  0  0  0  0  0  0  0  0
   17.1303    1.2366   49.2628 H   0  0  0  0  0  0  0  0  0  0  0  0
   18.4645    0.1767   48.7990 H   0  0  0  0  0  0  0  0  0  0  0  0
   16.3318   -2.7748   56.3269 H   0  0  0  0  0  0  0  0  0  0  0  0
   16.8994   -1.6074   55.1265 H   0  0  0  0  0  0  0  0  0  0  0  0
   16.7744   -3.3461   53.3372 H   0  0  0  0  0  0  0  0  0  0  0  0
   16.2160   -4.5232   54.5178 H   0  0  0  0  0  0  0  0  0  0  0  0
  1  2  1  0  0  0  0
  1  3  2  0  0  0  0
  1  4  1  0  0  0  0
  2  5  2  0  0  0  0
  2  6  1  0  0  0  0
  3  7  1  0  0  0  0
  3  8  1  0  0  0  0
  4  9  2  0  0  0  0
  4 10  1  0  0  0  0
  5 11  1  0  0  0  0
  5 24  1  0  0  0  0
  6 12  2  0  0  0  0
  7 13  2  0  0  0  0
  7 25  1  0  0  0  0
  8 14  1  0  0  0  0
  9 13  1  0  0  0  0
  9 26  1  0  0  0  0
 11 15  2  0  0  0  0
 11 16  1  0  0  0  0
 12 15  1  0  0  0  0
 12 17  1  0  0  0  0
 13 27  1  0  0  0  0
 14 18  1  0  0  0  0
 14 28  1  0  0  0  0
 14 29  1  0  0  0  0
 16 30  1  0  0  0  0
 16 31  1  0  0  0  0
 16 32  1  0  0  0  0
 17 33  1  0  0  0  0
 17 34  1  0  0  0  0
 18 19  1  0  0  0  0
 18 35  1  0  0  0  0
 18 36  1  0  0  0  0
 19 20  1  0  0  0  0
 19 37  1  0  0  0  0
 19 38  1  0  0  0  0
 20 21  1  0  0  0  0
 20 22  1  0  0  0  0
 20 23  1  0  0  0  0
M  END
$$$$
