FUZ
 OpenBabel04091915003D

 26 27  0  0  0  0  0  0  0  0999 V2000
   25.8232  -20.3751   30.8635 O   0  0  0  0  0  0  0  0  0  0  0  0
   24.8030  -21.4205   32.5842 O   0  0  0  0  0  0  0  0  0  0  0  0
   21.3518  -17.9620   31.2930 C   0  0  0  0  0  0  0  0  0  0  0  0
   21.3600  -18.9753   32.2259 C   0  0  0  0  0  0  0  0  0  0  0  0
   22.4370  -18.0405   25.7580 C   0  0  0  0  0  0  0  0  0  0  0  0
   23.3472  -19.0368   25.5921 C   0  0  0  0  0  0  0  0  0  0  0  0
   22.8053  -17.3244   26.8875 C   0  0  0  0  0  0  0  0  0  0  0  0
   22.4701  -17.7843   30.4591 C   0  0  0  0  0  0  0  0  0  0  0  0
   22.4830  -19.8043   32.3568 C   0  0  0  0  0  0  0  0  0  0  0  0
   24.6731  -17.4493   28.6268 C   0  0  0  0  0  0  0  0  0  0  0  0
   24.6947  -18.3662   29.7261 N   0  0  0  0  0  0  0  0  0  0  0  0
   24.2738  -18.9441   26.5867 O   0  0  0  0  0  0  0  0  0  0  0  0
   24.8464  -20.5595   31.6595 C   0  0  0  0  0  0  0  0  0  0  0  0
   23.9279  -17.8832   27.4004 C   0  0  0  0  0  0  0  0  0  0  0  0
   23.6000  -18.5999   30.5595 C   0  0  0  0  0  0  0  0  0  0  0  0
   23.6320  -19.6357   31.5212 C   0  0  0  0  0  0  0  0  0  0  0  0
   20.5137  -17.2956   31.1812 H   0  0  0  0  0  0  0  0  0  0  0  0
   20.4873  -19.1298   32.8585 H   0  0  0  0  0  0  0  0  0  0  0  0
   21.5755  -17.8446   25.1228 H   0  0  0  0  0  0  0  0  0  0  0  0
   23.3909  -19.7859   24.8367 H   0  0  0  0  0  0  0  0  0  0  0  0
   22.2564  -16.4788   27.2871 H   0  0  0  0  0  0  0  0  0  0  0  0
   22.4324  -16.9842   29.7343 H   0  0  0  0  0  0  0  0  0  0  0  0
   22.4919  -20.6004   33.1046 H   0  0  0  0  0  0  0  0  0  0  0  0
   25.6908  -17.1609   28.3691 H   0  0  0  0  0  0  0  0  0  0  0  0
   24.2290  -16.5062   28.9964 H   0  0  0  0  0  0  0  0  0  0  0  0
   25.4938  -19.0075   29.8756 H   0  0  0  0  0  0  0  0  0  0  0  0
  1 13  2  0  0  0  0
  2 13  1  0  0  0  0
  3  4  2  0  0  0  0
  3  8  1  0  0  0  0
  3 17  1  0  0  0  0
  4  9  1  0  0  0  0
  4 18  1  0  0  0  0
  5  6  2  0  0  0  0
  5  7  1  0  0  0  0
  5 19  1  0  0  0  0
  6 12  1  0  0  0  0
  6 20  1  0  0  0  0
  7 14  2  0  0  0  0
  7 21  1  0  0  0  0
  8 15  2  0  0  0  0
  8 22  1  0  0  0  0
  9 16  2  0  0  0  0
  9 23  1  0  0  0  0
 10 11  1  0  0  0  0
 10 14  1  0  0  0  0
 10 24  1  0  0  0  0
 10 25  1  0  0  0  0
 11 15  1  0  0  0  0
 11 26  1  0  0  0  0
 12 14  1  0  0  0  0
 13 16  1  0  0  0  0
 15 16  1  0  0  0  0
M  END
$$$$
