G11
 OpenBabel04091913133D

 47 50  0  0  1  0  0  0  0  0999 V2000
   40.7800   31.2339   32.5608 C   0  0  0  0  0  0  0  0  0  0  0  0
   41.9746   32.0680   32.5091 C   0  0  0  0  0  0  0  0  0  0  0  0
   40.6373   30.3854   33.6780 C   0  0  0  0  0  0  0  0  0  0  0  0
   39.7515   31.2721   31.6004 C   0  0  0  0  0  0  0  0  0  0  0  0
   42.0624   33.2248   33.2816 C   0  0  0  0  0  0  0  0  0  0  0  0
   42.9912   31.6195   31.7424 N   0  0  0  0  0  0  0  0  0  0  0  0
   39.5270   29.5487   33.8320 C   0  0  0  0  0  0  0  0  0  0  0  0
   38.6239   30.4489   31.7707 C   0  0  0  0  0  0  0  0  0  0  0  0
   39.8286   32.1835   30.4026 C   0  0  0  0  0  0  0  0  0  0  0  0
   44.1235   32.3645   31.7475 C   0  0  0  0  0  0  0  0  0  0  0  0
   43.2376   33.9733   33.2563 C   0  0  0  0  0  0  0  0  0  0  0  0
   39.5494   28.6765   35.0427 C   0  0  0  0  0  0  0  0  0  0  0  0
   38.5100   29.5876   32.8747 C   0  0  0  0  0  0  0  0  0  0  0  0
   44.3001   33.5492   32.4649 C   0  0  0  0  0  0  0  0  0  0  0  0
   38.6796   27.6037   35.0841 N   0  0  0  0  0  0  0  0  0  0  0  0
   40.3357   28.9295   35.9530 O   0  0  0  0  0  0  0  0  0  0  0  0
   45.5437   34.3725   32.3970 C   0  0  0  0  0  0  0  0  0  0  0  0
   38.5488   26.7999   36.2627 C   0  0  0  0  0  0  0  0  0  0  0  0
   46.4670   33.9622   31.4582 N   0  0  0  0  0  0  0  0  0  0  0  0
   45.6819   35.3498   33.1085 O   0  0  0  0  0  0  0  0  0  0  0  0
   38.2323   27.4711   37.5726 C   0  0  0  0  0  0  0  0  0  0  0  0
   37.1753   26.6775   36.8596 C   0  0  0  0  0  0  0  0  0  0  0  0
   47.7440   34.5962   31.2501 C   0  0  0  0  0  0  0  0  0  0  0  0
   48.8012   33.7494   31.8692 C   0  0  2  0  0  0  0  0  0  0  0  0
   49.1352   33.9660   33.2460 C   0  0  0  0  0  0  0  0  0  0  0  0
   50.0261   34.3092   32.3562 C   0  0  0  0  0  0  0  0  0  0  0  0
   41.4305   30.3538   34.4144 H   0  0  0  0  0  0  0  0  0  0  0  0
   41.2265   33.5317   33.8992 H   0  0  0  0  0  0  0  0  0  0  0  0
   37.8219   30.4778   31.0346 H   0  0  0  0  0  0  0  0  0  0  0  0
   40.7436   32.7816   30.3876 H   0  0  0  0  0  0  0  0  0  0  0  0
   38.9893   32.8848   30.4010 H   0  0  0  0  0  0  0  0  0  0  0  0
   39.8100   31.5975   29.4759 H   0  0  0  0  0  0  0  0  0  0  0  0
   44.8942   31.9412   31.1151 H   0  0  0  0  0  0  0  0  0  0  0  0
   43.3080   34.8859   33.8441 H   0  0  0  0  0  0  0  0  0  0  0  0
   37.6140   28.9807   32.9595 H   0  0  0  0  0  0  0  0  0  0  0  0
   37.9453   27.5208   34.3965 H   0  0  0  0  0  0  0  0  0  0  0  0
   39.2022   25.9316   36.2766 H   0  0  0  0  0  0  0  0  0  0  0  0
   46.3213   33.1333   30.9126 H   0  0  0  0  0  0  0  0  0  0  0  0
   38.2101   28.5558   37.5469 H   0  0  0  0  0  0  0  0  0  0  0  0
   38.6708   27.0768   38.4811 H   0  0  0  0  0  0  0  0  0  0  0  0
   36.8674   25.7351   37.2953 H   0  0  0  0  0  0  0  0  0  0  0  0
   36.3875   27.2020   36.3361 H   0  0  0  0  0  0  0  0  0  0  0  0
   47.7316   35.6160   31.6500 H   0  0  0  0  0  0  0  0  0  0  0  0
   47.8887   34.6491   30.1652 H   0  0  0  0  0  0  0  0  0  0  0  0
   48.8487   32.7386   31.4915 H   0  0  0  0  0  0  0  0  0  0  0  0
   48.7671   33.9400   34.2407 H   0  0  0  0  0  0  0  0  0  0  0  0
   50.9454   34.7717   32.1001 H   0  0  0  0  0  0  0  0  0  0  0  0
  1  2  1  0  0  0  0
  1  3  2  0  0  0  0
  1  4  1  0  0  0  0
  2  5  2  0  0  0  0
  2  6  1  0  0  0  0
  3  7  1  0  0  0  0
  3 27  1  0  0  0  0
  4  8  2  0  0  0  0
  4  9  1  0  0  0  0
  5 11  1  0  0  0  0
  5 28  1  0  0  0  0
  6 10  2  0  0  0  0
  7 12  1  0  0  0  0
  7 13  2  0  0  0  0
  8 13  1  0  0  0  0
  8 29  1  0  0  0  0
  9 30  1  0  0  0  0
  9 31  1  0  0  0  0
  9 32  1  0  0  0  0
 10 14  1  0  0  0  0
 10 33  1  0  0  0  0
 11 14  2  0  0  0  0
 11 34  1  0  0  0  0
 12 15  1  0  0  0  0
 12 16  2  0  0  0  0
 13 35  1  0  0  0  0
 14 17  1  0  0  0  0
 15 18  1  0  0  0  0
 15 36  1  0  0  0  0
 17 19  1  0  0  0  0
 17 20  2  0  0  0  0
 18 21  1  0  0  0  0
 18 22  1  0  0  0  0
 18 37  1  0  0  0  0
 19 23  1  0  0  0  0
 19 38  1  0  0  0  0
 21 22  1  0  0  0  0
 21 39  1  0  0  0  0
 21 40  1  0  0  0  0
 22 41  1  0  0  0  0
 22 42  1  0  0  0  0
 23 24  1  0  0  0  0
 23 43  1  0  0  0  0
 23 44  1  0  0  0  0
 24 25  1  0  0  0  0
 24 26  1  0  0  0  0
 24 45  1  6  0  0  0
 25 26  2  0  0  0  0
 25 46  1  0  0  0  0
 26 47  1  0  0  0  0
M  END
$$$$
