G24
 OpenBabel04091914033D

 51 53  0  0  0  0  0  0  0  0999 V2000
   21.3398   -2.3985  -22.5339 C   0  0  0  0  0  0  0  0  0  0  0  0
   20.6510   -2.6906  -21.3604 C   0  0  0  0  0  0  0  0  0  0  0  0
   20.4032   -1.6790  -20.4308 C   0  0  0  0  0  0  0  0  0  0  0  0
   20.8755   -0.3907  -20.6519 C   0  0  0  0  0  0  0  0  0  0  0  0
   21.6091   -0.1208  -21.8014 C   0  0  0  0  0  0  0  0  0  0  0  0
   21.8303   -1.1120  -22.7628 C   0  0  0  0  0  0  0  0  0  0  0  0
   22.5649   -0.7351  -24.0072 C   0  0  0  0  0  0  0  0  0  0  0  0
   21.7695   -0.0670  -25.0978 C   0  0  0  0  0  0  0  0  0  0  0  0
   21.9548   -0.6467  -26.3407 C   0  0  0  0  0  0  0  0  0  0  0  0
   20.9505    1.0711  -25.0421 C   0  0  0  0  0  0  0  0  0  0  0  0
   20.7355    1.7931  -23.9051 O   0  0  0  0  0  0  0  0  0  0  0  0
   20.3239    1.5818  -26.1820 C   0  0  0  0  0  0  0  0  0  0  0  0
   20.5300    0.9707  -27.4140 C   0  0  0  0  0  0  0  0  0  0  0  0
   21.3616   -0.1465  -27.4925 C   0  0  0  0  0  0  0  0  0  0  0  0
   21.7224   -0.9298  -28.7163 C   0  0  0  0  0  0  0  0  0  0  0  0
   21.4147   -0.2648  -30.0101 C   0  0  0  0  0  0  0  0  0  0  0  0
   20.2749   -0.6506  -30.7522 C   0  0  0  0  0  0  0  0  0  0  0  0
   19.3578   -1.7271  -30.2353 C   0  0  0  0  0  0  0  0  0  0  0  0
   20.0173   -0.0078  -31.9680 C   0  0  0  0  0  0  0  0  0  0  0  0
   22.2690    0.7569  -30.4603 C   0  0  0  0  0  0  0  0  0  0  0  0
   23.4593    1.2632  -29.6900 C   0  0  0  0  0  0  0  0  0  0  0  0
   21.9978    1.3411  -31.6831 C   0  0  0  0  0  0  0  0  0  0  0  0
   20.8768    0.9926  -32.4377 C   0  0  0  0  0  0  0  0  0  0  0  0
   20.5595    1.5795  -33.6269 O   0  0  0  0  0  0  0  0  0  0  0  0
   21.3624    2.7268  -34.0029 C   0  0  0  0  0  0  0  0  0  0  0  0
   22.5767    2.3246  -34.8748 C   0  0  0  0  0  0  0  0  0  0  0  0
   22.4947    2.6801  -36.0943 O   0  0  0  0  0  0  0  0  0  0  0  0
   23.5480    1.7744  -34.2842 O   0  0  0  0  0  0  0  0  0  0  0  0
   21.5014   -3.1905  -23.2679 H   0  0  0  0  0  0  0  0  0  0  0  0
   20.2925   -3.6976  -21.1704 H   0  0  0  0  0  0  0  0  0  0  0  0
   19.8396   -1.8913  -19.5275 H   0  0  0  0  0  0  0  0  0  0  0  0
   20.6736    0.4114  -19.9561 H   0  0  0  0  0  0  0  0  0  0  0  0
   21.9996    0.8785  -21.9558 H   0  0  0  0  0  0  0  0  0  0  0  0
   22.9963   -1.6715  -24.3960 H   0  0  0  0  0  0  0  0  0  0  0  0
   23.4411   -0.1193  -23.7704 H   0  0  0  0  0  0  0  0  0  0  0  0
   22.6021   -1.5149  -26.4450 H   0  0  0  0  0  0  0  0  0  0  0  0
   21.6205    2.0889  -23.6250 H   0  0  0  0  0  0  0  0  0  0  0  0
   19.7025    2.4715  -26.1120 H   0  0  0  0  0  0  0  0  0  0  0  0
   20.0640    1.4017  -28.3014 H   0  0  0  0  0  0  0  0  0  0  0  0
   21.2573   -1.9148  -28.6316 H   0  0  0  0  0  0  0  0  0  0  0  0
   22.7994   -1.1431  -28.7066 H   0  0  0  0  0  0  0  0  0  0  0  0
   18.5208   -1.9279  -30.9053 H   0  0  0  0  0  0  0  0  0  0  0  0
   18.9455   -1.4338  -29.2609 H   0  0  0  0  0  0  0  0  0  0  0  0
   19.9094   -2.6678  -30.1139 H   0  0  0  0  0  0  0  0  0  0  0  0
   19.1532   -0.2846  -32.5637 H   0  0  0  0  0  0  0  0  0  0  0  0
   23.9755    2.0663  -30.2289 H   0  0  0  0  0  0  0  0  0  0  0  0
   24.1871    0.4641  -29.5267 H   0  0  0  0  0  0  0  0  0  0  0  0
   23.1494    1.6884  -28.7309 H   0  0  0  0  0  0  0  0  0  0  0  0
   22.7149    2.0637  -32.0425 H   0  0  0  0  0  0  0  0  0  0  0  0
   21.6651    3.3372  -33.1423 H   0  0  0  0  0  0  0  0  0  0  0  0
   20.7073    3.3904  -34.5759 H   0  0  0  0  0  0  0  0  0  0  0  0
  1  2  2  0  0  0  0
  1  6  1  0  0  0  0
  1 29  1  0  0  0  0
  2  3  1  0  0  0  0
  2 30  1  0  0  0  0
  3  4  2  0  0  0  0
  3 31  1  0  0  0  0
  4  5  1  0  0  0  0
  4 32  1  0  0  0  0
  5  6  2  0  0  0  0
  5 33  1  0  0  0  0
  6  7  1  0  0  0  0
  7  8  1  0  0  0  0
  7 34  1  0  0  0  0
  7 35  1  0  0  0  0
  8  9  2  0  0  0  0
  8 10  1  0  0  0  0
  9 14  1  0  0  0  0
  9 36  1  0  0  0  0
 10 11  1  0  0  0  0
 10 12  2  0  0  0  0
 11 37  1  0  0  0  0
 12 13  1  0  0  0  0
 12 38  1  0  0  0  0
 13 14  2  0  0  0  0
 13 39  1  0  0  0  0
 14 15  1  0  0  0  0
 15 16  1  0  0  0  0
 15 40  1  0  0  0  0
 15 41  1  0  0  0  0
 16 17  2  0  0  0  0
 16 20  1  0  0  0  0
 17 18  1  0  0  0  0
 17 19  1  0  0  0  0
 18 42  1  0  0  0  0
 18 43  1  0  0  0  0
 18 44  1  0  0  0  0
 19 23  2  0  0  0  0
 19 45  1  0  0  0  0
 20 21  1  0  0  0  0
 20 22  2  0  0  0  0
 21 46  1  0  0  0  0
 21 47  1  0  0  0  0
 21 48  1  0  0  0  0
 22 23  1  0  0  0  0
 22 49  1  0  0  0  0
 23 24  1  0  0  0  0
 24 25  1  0  0  0  0
 25 26  1  0  0  0  0
 25 50  1  0  0  0  0
 25 51  1  0  0  0  0
 26 27  2  0  0  0  0
 26 28  1  0  0  0  0
M  END
$$$$
