G39
 OpenBabel04091911163D

 44 44  0  0  1  0  0  0  0  0999 V2000
  -30.3572  -53.1491    5.9916 C   0  0  0  0  0  0  0  0  0  0  0  0
  -31.4436  -52.5550    5.7826 O   0  0  0  0  0  0  0  0  0  0  0  0
  -29.1617  -52.7638    5.8484 O   0  0  0  0  0  0  0  0  0  0  0  0
  -30.4688  -54.5402    6.6716 C   0  0  0  0  0  0  0  0  0  0  0  0
  -29.1870  -55.1707    7.1199 C   0  0  0  0  0  0  0  0  0  0  0  0
  -29.4063  -56.1301    8.2759 C   0  0  1  0  0  0  0  0  0  0  0  0
  -30.6418  -57.0373    8.0927 C   0  0  1  0  0  0  0  0  0  0  0  0
  -30.7309  -57.9557    9.2564 N   0  0  0  0  0  0  0  0  0  0  0  0
  -30.6238  -59.3185    9.1032 C   0  0  0  0  0  0  0  0  0  0  0  0
  -30.3623  -59.8542    8.0315 O   0  0  0  0  0  0  0  0  0  0  0  0
  -30.6553  -60.0625   10.4043 C   0  0  0  0  0  0  0  0  0  0  0  0
  -31.9150  -56.1714    7.9314 C   0  0  1  0  0  0  0  0  0  0  0  0
  -31.6854  -55.0583    6.9500 C   0  0  0  0  0  0  0  0  0  0  0  0
  -33.0155  -56.9920    7.5285 O   0  0  0  0  0  0  0  0  0  0  0  0
  -34.1606  -56.8954    8.3929 C   0  0  0  0  0  0  0  0  0  0  0  0
  -34.8750  -55.5353    8.2727 C   0  0  0  0  0  0  0  0  0  0  0  0
  -35.1382  -58.0370    8.0666 C   0  0  0  0  0  0  0  0  0  0  0  0
  -34.6137  -59.4061    8.4663 C   0  0  0  0  0  0  0  0  0  0  0  0
  -35.4343  -55.2541    6.8839 C   0  0  0  0  0  0  0  0  0  0  0  0
  -28.1877  -56.9915    8.4218 N   0  3  0  0  0  0  0  0  0  0  0  0
  -28.4630  -54.4119    7.4529 H   0  0  0  0  0  0  0  0  0  0  0  0
  -28.7442  -55.6826    6.2623 H   0  0  0  0  0  0  0  0  0  0  0  0
  -29.4855  -55.5797    9.2190 H   0  0  0  0  0  0  0  0  0  0  0  0
  -30.5145  -57.6443    7.1864 H   0  0  0  0  0  0  0  0  0  0  0  0
  -31.1211  -57.5958   10.1205 H   0  0  0  0  0  0  0  0  0  0  0  0
  -30.5724  -61.1369   10.2103 H   0  0  0  0  0  0  0  0  0  0  0  0
  -31.5793  -59.8650   10.9493 H   0  0  0  0  0  0  0  0  0  0  0  0
  -29.7936  -59.7486   11.0015 H   0  0  0  0  0  0  0  0  0  0  0  0
  -32.1295  -55.6997    8.8968 H   0  0  0  0  0  0  0  0  0  0  0  0
  -32.5631  -54.5639    6.5458 H   0  0  0  0  0  0  0  0  0  0  0  0
  -33.8236  -57.0246    9.4304 H   0  0  0  0  0  0  0  0  0  0  0  0
  -34.1883  -54.7239    8.5386 H   0  0  0  0  0  0  0  0  0  0  0  0
  -35.6946  -55.4967    8.9984 H   0  0  0  0  0  0  0  0  0  0  0  0
  -35.3475  -58.0618    6.9911 H   0  0  0  0  0  0  0  0  0  0  0  0
  -36.0881  -57.8696    8.5901 H   0  0  0  0  0  0  0  0  0  0  0  0
  -35.3610  -60.1696    8.2240 H   0  0  0  0  0  0  0  0  0  0  0  0
  -34.4236  -59.4526    9.5433 H   0  0  0  0  0  0  0  0  0  0  0  0
  -33.6913  -59.6512    7.9348 H   0  0  0  0  0  0  0  0  0  0  0  0
  -35.9128  -54.2707    6.8650 H   0  0  0  0  0  0  0  0  0  0  0  0
  -36.1900  -55.9916    6.5982 H   0  0  0  0  0  0  0  0  0  0  0  0
  -34.6496  -55.2655    6.1224 H   0  0  0  0  0  0  0  0  0  0  0  0
  -28.3185  -57.6635    9.1798 H   0  0  0  0  0  0  0  0  0  0  0  0
  -28.0334  -57.5417    7.5508 H   0  0  0  0  0  0  0  0  0  0  0  0
  -27.3421  -56.4246    8.5951 H   0  0  0  0  0  0  0  0  0  0  0  0
  1  2  2  0  0  0  0
  1  3  1  0  0  0  0
  1  4  1  0  0  0  0
  4  5  1  0  0  0  0
  4 13  2  0  0  0  0
  5  6  1  0  0  0  0
  5 21  1  0  0  0  0
  5 22  1  0  0  0  0
  6  7  1  0  0  0  0
  6 20  1  0  0  0  0
  6 23  1  1  0  0  0
  7  8  1  0  0  0  0
  7 12  1  0  0  0  0
  7 24  1  6  0  0  0
  8  9  1  0  0  0  0
  8 25  1  0  0  0  0
  9 10  2  0  0  0  0
  9 11  1  0  0  0  0
 11 26  1  0  0  0  0
 11 27  1  0  0  0  0
 11 28  1  0  0  0  0
 12 13  1  0  0  0  0
 12 14  1  0  0  0  0
 12 29  1  1  0  0  0
 13 30  1  0  0  0  0
 14 15  1  0  0  0  0
 15 16  1  0  0  0  0
 15 17  1  0  0  0  0
 15 31  1  0  0  0  0
 16 19  1  0  0  0  0
 16 32  1  0  0  0  0
 16 33  1  0  0  0  0
 17 18  1  0  0  0  0
 17 34  1  0  0  0  0
 17 35  1  0  0  0  0
 18 36  1  0  0  0  0
 18 37  1  0  0  0  0
 18 38  1  0  0  0  0
 19 39  1  0  0  0  0
 19 40  1  0  0  0  0
 19 41  1  0  0  0  0
 20 42  1  0  0  0  0
 20 43  1  0  0  0  0
 20 44  1  0  0  0  0
M  CHG  1  20   1
M  END
$$$$
