G55
 OpenBabel04091911293D

 76 78  0  0  1  0  0  0  0  0999 V2000
   20.8613   27.8738   15.0229 C   0  0  0  0  0  0  0  0  0  0  0  0
   21.4947   29.0565   14.7581 O   0  0  0  0  0  0  0  0  0  0  0  0
   22.8789   29.0990   15.0906 C   0  0  0  0  0  0  0  0  0  0  0  0
   21.4714   26.7357   15.5484 C   0  0  0  0  0  0  0  0  0  0  0  0
   20.7213   25.5946   15.8089 C   0  0  0  0  0  0  0  0  0  0  0  0
   19.3490   25.6102   15.5726 C   0  0  0  0  0  0  0  0  0  0  0  0
   18.7496   26.7015   14.9420 C   0  0  0  0  0  0  0  0  0  0  0  0
   19.5165   27.8277   14.6643 C   0  0  0  0  0  0  0  0  0  0  0  0
   18.3679   24.1998   15.9940 S   0  0  0  0  0  0  0  0  0  0  0  0
   17.2992   24.1177   15.0644 O   0  0  0  0  0  0  0  0  0  0  0  0
   19.2991   23.1016   16.1892 O   0  0  0  0  0  0  0  0  0  0  0  0
   17.7181   24.5304   17.5196 N   0  0  0  0  0  0  0  0  0  0  0  0
   18.6691   24.8272   18.5881 C   0  0  0  0  0  0  0  0  0  0  0  0
   18.3637   24.1393   19.9094 C   0  0  0  0  0  0  0  0  0  0  0  0
   18.4702   22.6264   19.7766 C   0  0  0  0  0  0  0  0  0  0  0  0
   19.4114   24.6672   20.8873 C   0  0  0  0  0  0  0  0  0  0  0  0
   16.4285   25.2088   17.5752 C   0  0  0  0  0  0  0  0  0  0  0  0
   15.3350   24.2865   18.1321 C   0  0  1  0  0  0  0  0  0  0  0  0
   14.1732   25.0845   18.4248 O   0  0  0  0  0  0  0  0  0  0  0  0
   14.9283   23.1236   17.1962 C   0  0  1  0  0  0  0  0  0  0  0  0
   14.0533   22.2069   17.9330 N   0  0  0  0  0  0  0  0  0  0  0  0
   14.4287   21.0147   18.3846 C   0  0  0  0  0  0  0  0  0  0  0  0
   15.5565   20.5887   18.2581 O   0  0  0  0  0  0  0  0  0  0  0  0
   13.4366   20.3590   19.0001 O   0  0  0  0  0  0  0  0  0  0  0  0
   13.7553   18.9992   19.3638 C   0  0  1  0  0  0  0  0  0  0  0  0
   12.7962   18.5680   20.4710 C   0  0  0  0  0  0  0  0  0  0  0  0
   11.4241   18.6972   20.0940 O   0  0  0  0  0  0  0  0  0  0  0  0
   10.8486   17.5575   19.4578 C   0  0  0  0  0  0  0  0  0  0  0  0
   11.6698   16.9139   18.4934 O   0  0  0  0  0  0  0  0  0  0  0  0
   12.2602   17.8661   17.6179 C   0  0  0  0  0  0  0  0  0  0  0  0
   13.6702   18.1370   18.1076 C   0  0  0  0  0  0  0  0  0  0  0  0
   14.1590   23.5707   15.9488 C   0  0  0  0  0  0  0  0  0  0  0  0
   12.6144   21.7917   15.0454 C   0  0  0  0  0  0  0  0  0  0  0  0
   12.4014   20.6053   14.3449 C   0  0  0  0  0  0  0  0  0  0  0  0
   13.4076   20.0522   13.5600 C   0  0  0  0  0  0  0  0  0  0  0  0
   14.6327   20.7027   13.4697 C   0  0  0  0  0  0  0  0  0  0  0  0
   14.8676   21.8570   14.2199 C   0  0  0  0  0  0  0  0  0  0  0  0
   13.8696   22.4002   15.0333 C   0  0  0  0  0  0  0  0  0  0  0  0
   23.2735   30.0785   14.8039 H   0  0  0  0  0  0  0  0  0  0  0  0
   23.4254   28.3277   14.5398 H   0  0  0  0  0  0  0  0  0  0  0  0
   23.0125   28.9649   16.1682 H   0  0  0  0  0  0  0  0  0  0  0  0
   22.5410   26.7033   15.7210 H   0  0  0  0  0  0  0  0  0  0  0  0
   21.2085   24.7116   16.2187 H   0  0  0  0  0  0  0  0  0  0  0  0
   17.6934   26.6871   14.6826 H   0  0  0  0  0  0  0  0  0  0  0  0
   19.0687   28.6587   14.1316 H   0  0  0  0  0  0  0  0  0  0  0  0
   18.6795   25.9087   18.7370 H   0  0  0  0  0  0  0  0  0  0  0  0
   19.6657   24.5126   18.2605 H   0  0  0  0  0  0  0  0  0  0  0  0
   17.3649   24.3866   20.2886 H   0  0  0  0  0  0  0  0  0  0  0  0
   18.2591   22.1334   20.7329 H   0  0  0  0  0  0  0  0  0  0  0  0
   19.4794   22.3489   19.4524 H   0  0  0  0  0  0  0  0  0  0  0  0
   17.7521   22.2680   19.0325 H   0  0  0  0  0  0  0  0  0  0  0  0
   19.3116   25.7568   20.9758 H   0  0  0  0  0  0  0  0  0  0  0  0
   20.4185   24.4466   20.5069 H   0  0  0  0  0  0  0  0  0  0  0  0
   19.2998   24.2194   21.8752 H   0  0  0  0  0  0  0  0  0  0  0  0
   16.1391   25.5517   16.5867 H   0  0  0  0  0  0  0  0  0  0  0  0
   16.5175   26.0840   18.2237 H   0  0  0  0  0  0  0  0  0  0  0  0
   15.6947   23.8518   19.0701 H   0  0  0  0  0  0  0  0  0  0  0  0
   14.4091   25.7600   19.0844 H   0  0  0  0  0  0  0  0  0  0  0  0
   15.8365   22.5926   16.8838 H   0  0  0  0  0  0  0  0  0  0  0  0
   13.0869   22.4785   18.1005 H   0  0  0  0  0  0  0  0  0  0  0  0
   14.7832   18.9367   19.7725 H   0  0  0  0  0  0  0  0  0  0  0  0
   12.9390   19.2472   21.3200 H   0  0  0  0  0  0  0  0  0  0  0  0
   13.0209   17.5473   20.7750 H   0  0  0  0  0  0  0  0  0  0  0  0
    9.9397   17.9036   18.9481 H   0  0  0  0  0  0  0  0  0  0  0  0
   10.5653   16.8256   20.2181 H   0  0  0  0  0  0  0  0  0  0  0  0
   11.6687   18.7849   17.5668 H   0  0  0  0  0  0  0  0  0  0  0  0
   12.3066   17.4259   16.6138 H   0  0  0  0  0  0  0  0  0  0  0  0
   14.1537   17.1817   18.3189 H   0  0  0  0  0  0  0  0  0  0  0  0
   14.2034   18.6522   17.3099 H   0  0  0  0  0  0  0  0  0  0  0  0
   14.7350   24.3124   15.4017 H   0  0  0  0  0  0  0  0  0  0  0  0
   13.2074   24.0223   16.2585 H   0  0  0  0  0  0  0  0  0  0  0  0
   11.7955   22.2303   15.6093 H   0  0  0  0  0  0  0  0  0  0  0  0
   11.4372   20.1180   14.4216 H   0  0  0  0  0  0  0  0  0  0  0  0
   13.2264   19.1274   13.0178 H   0  0  0  0  0  0  0  0  0  0  0  0
   15.4107   20.3076   12.8234 H   0  0  0  0  0  0  0  0  0  0  0  0
   15.8385   22.3411   14.1719 H   0  0  0  0  0  0  0  0  0  0  0  0
  1  2  1  0  0  0  0
  1  4  2  0  0  0  0
  1  8  1  0  0  0  0
  2  3  1  0  0  0  0
  3 39  1  0  0  0  0
  3 40  1  0  0  0  0
  3 41  1  0  0  0  0
  4  5  1  0  0  0  0
  4 42  1  0  0  0  0
  5  6  2  0  0  0  0
  5 43  1  0  0  0  0
  6  7  1  0  0  0  0
  6  9  1  0  0  0  0
  7  8  2  0  0  0  0
  7 44  1  0  0  0  0
  8 45  1  0  0  0  0
  9 10  2  0  0  0  0
  9 11  2  0  0  0  0
  9 12  1  0  0  0  0
 12 13  1  0  0  0  0
 12 17  1  0  0  0  0
 13 14  1  0  0  0  0
 13 46  1  0  0  0  0
 13 47  1  0  0  0  0
 14 15  1  0  0  0  0
 14 16  1  0  0  0  0
 14 48  1  0  0  0  0
 15 49  1  0  0  0  0
 15 50  1  0  0  0  0
 15 51  1  0  0  0  0
 16 52  1  0  0  0  0
 16 53  1  0  0  0  0
 16 54  1  0  0  0  0
 17 18  1  0  0  0  0
 17 55  1  0  0  0  0
 17 56  1  0  0  0  0
 18 19  1  0  0  0  0
 18 20  1  0  0  0  0
 18 57  1  1  0  0  0
 19 58  1  0  0  0  0
 20 21  1  0  0  0  0
 20 32  1  0  0  0  0
 20 59  1  6  0  0  0
 21 22  1  0  0  0  0
 21 60  1  0  0  0  0
 22 23  2  0  0  0  0
 22 24  1  0  0  0  0
 24 25  1  0  0  0  0
 25 26  1  0  0  0  0
 25 31  1  0  0  0  0
 25 61  1  1  0  0  0
 26 27  1  0  0  0  0
 26 62  1  0  0  0  0
 26 63  1  0  0  0  0
 27 28  1  0  0  0  0
 28 29  1  0  0  0  0
 28 64  1  0  0  0  0
 28 65  1  0  0  0  0
 29 30  1  0  0  0  0
 30 31  1  0  0  0  0
 30 66  1  0  0  0  0
 30 67  1  0  0  0  0
 31 68  1  0  0  0  0
 31 69  1  0  0  0  0
 32 38  1  0  0  0  0
 32 70  1  0  0  0  0
 32 71  1  0  0  0  0
 33 34  2  0  0  0  0
 33 38  1  0  0  0  0
 33 72  1  0  0  0  0
 34 35  1  0  0  0  0
 34 73  1  0  0  0  0
 35 36  2  0  0  0  0
 35 74  1  0  0  0  0
 36 37  1  0  0  0  0
 36 75  1  0  0  0  0
 37 38  2  0  0  0  0
 37 76  1  0  0  0  0
M  END
$$$$
