G6A
 OpenBabel04091911373D

 47 50  0  0  0  0  0  0  0  0999 V2000
   48.8327   34.7977   30.5084 C   0  0  0  0  0  0  0  0  0  0  0  0
   37.0934   26.5026   36.2730 C   0  0  0  0  0  0  0  0  0  0  0  0
   38.2308   27.1647   36.9924 C   0  0  0  0  0  0  0  0  0  0  0  0
   38.4738   26.4742   35.6753 C   0  0  0  0  0  0  0  0  0  0  0  0
   47.5193   34.8419   31.1899 C   0  0  0  0  0  0  0  0  0  0  0  0
   46.6093   33.8237   30.9611 O   0  0  0  0  0  0  0  0  0  0  0  0
   47.0601   35.7609   32.0055 N   0  0  0  0  0  0  0  0  0  0  0  0
   45.7907   35.3691   32.3724 N   0  0  0  0  0  0  0  0  0  0  0  0
   45.5416   34.2329   31.7465 C   0  0  0  0  0  0  0  0  0  0  0  0
   44.3337   33.3960   31.8056 C   0  0  0  0  0  0  0  0  0  0  0  0
   43.2334   33.7838   32.5920 C   0  0  0  0  0  0  0  0  0  0  0  0
   42.0766   32.9891   32.6607 C   0  0  0  0  0  0  0  0  0  0  0  0
   44.2366   32.1913   31.0996 C   0  0  0  0  0  0  0  0  0  0  0  0
   43.0844   31.3721   31.1813 C   0  0  0  0  0  0  0  0  0  0  0  0
   43.0474   30.0735   30.4222 C   0  0  0  0  0  0  0  0  0  0  0  0
   41.9901   31.7798   31.9682 C   0  0  0  0  0  0  0  0  0  0  0  0
   40.7526   30.9587   32.0644 C   0  0  0  0  0  0  0  0  0  0  0  0
   40.6535   30.0509   33.1275 C   0  0  0  0  0  0  0  0  0  0  0  0
   39.5386   29.2181   33.2828 C   0  0  0  0  0  0  0  0  0  0  0  0
   39.5816   28.2892   34.4516 C   0  0  0  0  0  0  0  0  0  0  0  0
   40.4144   28.4714   35.3359 O   0  0  0  0  0  0  0  0  0  0  0  0
   38.6680   27.2530   34.4875 N   0  0  0  0  0  0  0  0  0  0  0  0
   38.4855   29.3206   32.3680 C   0  0  0  0  0  0  0  0  0  0  0  0
   38.5706   30.2348   31.3043 C   0  0  0  0  0  0  0  0  0  0  0  0
   39.7019   31.0594   31.1434 C   0  0  0  0  0  0  0  0  0  0  0  0
   39.7575   32.0356   29.9959 C   0  0  0  0  0  0  0  0  0  0  0  0
   49.4415   35.6681   30.7810 H   0  0  0  0  0  0  0  0  0  0  0  0
   48.7248   34.8096   29.4168 H   0  0  0  0  0  0  0  0  0  0  0  0
   49.4005   33.9036   30.7906 H   0  0  0  0  0  0  0  0  0  0  0  0
   36.3719   27.1230   35.7540 H   0  0  0  0  0  0  0  0  0  0  0  0
   36.6743   25.6047   36.7069 H   0  0  0  0  0  0  0  0  0  0  0  0
   38.5975   26.7167   37.9080 H   0  0  0  0  0  0  0  0  0  0  0  0
   38.3261   28.2455   36.9815 H   0  0  0  0  0  0  0  0  0  0  0  0
   39.0249   25.5354   35.6836 H   0  0  0  0  0  0  0  0  0  0  0  0
   43.2647   34.7098   33.1663 H   0  0  0  0  0  0  0  0  0  0  0  0
   41.2330   33.3274   33.2657 H   0  0  0  0  0  0  0  0  0  0  0  0
   45.0659   31.8706   30.4787 H   0  0  0  0  0  0  0  0  0  0  0  0
   43.9817   29.9013   29.8789 H   0  0  0  0  0  0  0  0  0  0  0  0
   42.2336   30.0823   29.6895 H   0  0  0  0  0  0  0  0  0  0  0  0
   42.9058   29.2350   31.1127 H   0  0  0  0  0  0  0  0  0  0  0  0
   41.4749   29.9814   33.8400 H   0  0  0  0  0  0  0  0  0  0  0  0
   37.9189   27.2203   33.8126 H   0  0  0  0  0  0  0  0  0  0  0  0
   37.5842   28.7246   32.4606 H   0  0  0  0  0  0  0  0  0  0  0  0
   37.7416   30.3089   30.6023 H   0  0  0  0  0  0  0  0  0  0  0  0
   40.6942   32.6008   29.9769 H   0  0  0  0  0  0  0  0  0  0  0  0
   38.9503   32.7684   30.0793 H   0  0  0  0  0  0  0  0  0  0  0  0
   39.6888   31.5119   29.0378 H   0  0  0  0  0  0  0  0  0  0  0  0
  1  5  1  0  0  0  0
  1 27  1  0  0  0  0
  1 28  1  0  0  0  0
  1 29  1  0  0  0  0
  2  3  1  0  0  0  0
  2  4  1  0  0  0  0
  2 30  1  0  0  0  0
  2 31  1  0  0  0  0
  3  4  1  0  0  0  0
  3 32  1  0  0  0  0
  3 33  1  0  0  0  0
  4 22  1  0  0  0  0
  4 34  1  0  0  0  0
  5  6  1  0  0  0  0
  5  7  2  0  0  0  0
  6  9  1  0  0  0  0
  7  8  1  0  0  0  0
  8  9  2  0  0  0  0
  9 10  1  0  0  0  0
 10 11  2  0  0  0  0
 10 13  1  0  0  0  0
 11 12  1  0  0  0  0
 11 35  1  0  0  0  0
 12 16  2  0  0  0  0
 12 36  1  0  0  0  0
 13 14  2  0  0  0  0
 13 37  1  0  0  0  0
 14 15  1  0  0  0  0
 14 16  1  0  0  0  0
 15 38  1  0  0  0  0
 15 39  1  0  0  0  0
 15 40  1  0  0  0  0
 16 17  1  0  0  0  0
 17 18  2  0  0  0  0
 17 25  1  0  0  0  0
 18 19  1  0  0  0  0
 18 41  1  0  0  0  0
 19 20  1  0  0  0  0
 19 23  2  0  0  0  0
 20 21  2  0  0  0  0
 20 22  1  0  0  0  0
 22 42  1  0  0  0  0
 23 24  1  0  0  0  0
 23 43  1  0  0  0  0
 24 25  2  0  0  0  0
 24 44  1  0  0  0  0
 25 26  1  0  0  0  0
 26 45  1  0  0  0  0
 26 46  1  0  0  0  0
 26 47  1  0  0  0  0
M  END
$$$$
