G89
 OpenBabel04091915183D

 80 83  0  0  1  0  0  0  0  0999 V2000
   14.4476   20.9469   18.1714 C   0  0  0  0  0  0  0  0  0  0  0  0
   15.5725   20.4755   18.0364 O   0  0  0  0  0  0  0  0  0  0  0  0
   13.4373   20.2985   18.8045 O   0  0  0  0  0  0  0  0  0  0  0  0
   13.7251   18.9264   19.1425 C   0  0  1  0  0  0  0  0  0  0  0  0
   12.6037   18.3712   20.0131 C   0  0  0  0  0  0  0  0  0  0  0  0
   11.5383   17.9709   18.9986 C   0  0  1  0  0  0  0  0  0  0  0  0
   10.8020   19.1424   18.6177 O   0  0  0  0  0  0  0  0  0  0  0  0
   10.9198   19.3402   17.1976 C   0  0  0  0  0  0  0  0  0  0  0  0
   11.4889   18.0655   16.6093 C   0  0  1  0  0  0  0  0  0  0  0  0
   12.2694   17.4649   17.7634 C   0  0  1  0  0  0  0  0  0  0  0  0
   13.6908   18.0451   17.8845 C   0  0  0  0  0  0  0  0  0  0  0  0
   10.3665   17.2678   16.2249 O   0  0  0  0  0  0  0  0  0  0  0  0
   17.7922   24.3779   17.4090 N   0  0  0  0  0  0  0  0  0  0  0  0
   18.7403   24.7050   18.5027 C   0  0  0  0  0  0  0  0  0  0  0  0
   18.3584   24.0493   19.8341 C   0  0  0  0  0  0  0  0  0  0  0  0
   18.3900   22.5276   19.7381 C   0  0  0  0  0  0  0  0  0  0  0  0
   19.3364   24.4665   20.9318 C   0  0  0  0  0  0  0  0  0  0  0  0
   16.5125   25.1050   17.4132 C   0  0  0  0  0  0  0  0  0  0  0  0
   15.3817   24.2090   17.9398 C   0  0  1  0  0  0  0  0  0  0  0  0
   14.2372   24.9992   18.3021 O   0  0  0  0  0  0  0  0  0  0  0  0
   14.9745   23.0575   16.9984 C   0  0  1  0  0  0  0  0  0  0  0  0
   14.0750   22.1609   17.7368 N   0  0  0  0  0  0  0  0  0  0  0  0
   14.2532   23.5233   15.7217 C   0  0  0  0  0  0  0  0  0  0  0  0
   12.6341   21.8851   14.6856 C   0  0  0  0  0  0  0  0  0  0  0  0
   12.3624   20.7467   13.9286 C   0  0  0  0  0  0  0  0  0  0  0  0
   13.3855   20.1130   13.2281 C   0  0  0  0  0  0  0  0  0  0  0  0
   14.6915   20.5798   13.3467 C   0  0  0  0  0  0  0  0  0  0  0  0
   14.9723   21.6890   14.1405 C   0  0  0  0  0  0  0  0  0  0  0  0
   13.9440   22.3575   14.8132 C   0  0  0  0  0  0  0  0  0  0  0  0
   18.4817   24.0605   15.8911 S   0  0  0  0  0  0  0  0  0  0  0  0
   17.4067   24.0035   14.9168 O   0  0  0  0  0  0  0  0  0  0  0  0
   19.4148   22.9887   16.0427 O   0  0  0  0  0  0  0  0  0  0  0  0
   19.4137   25.5426   15.5439 C   0  0  0  0  0  0  0  0  0  0  0  0
   18.8079   26.6529   14.9530 C   0  0  0  0  0  0  0  0  0  0  0  0
   20.7822   25.5403   15.8148 C   0  0  0  0  0  0  0  0  0  0  0  0
   19.5663   27.7765   14.6358 C   0  0  0  0  0  0  0  0  0  0  0  0
   21.5225   26.6778   15.5357 C   0  0  0  0  0  0  0  0  0  0  0  0
   20.9258   27.7993   14.9464 C   0  0  0  0  0  0  0  0  0  0  0  0
   21.5994   28.9575   14.6553 O   0  0  0  0  0  0  0  0  0  0  0  0
   22.9894   28.8783   14.9601 C   0  0  0  0  0  0  0  0  0  0  0  0
   14.6925   18.8664   19.6559 H   0  0  0  0  0  0  0  0  0  0  0  0
   12.2285   19.1284   20.7085 H   0  0  0  0  0  0  0  0  0  0  0  0
   12.9516   17.4962   20.5773 H   0  0  0  0  0  0  0  0  0  0  0  0
   10.8384   17.2323   19.4054 H   0  0  0  0  0  0  0  0  0  0  0  0
   11.5721   20.1963   17.0063 H   0  0  0  0  0  0  0  0  0  0  0  0
    9.9216   19.5608   16.8152 H   0  0  0  0  0  0  0  0  0  0  0  0
   12.1076   18.2356   15.7223 H   0  0  0  0  0  0  0  0  0  0  0  0
   12.3086   16.3700   17.7213 H   0  0  0  0  0  0  0  0  0  0  0  0
   14.4023   17.2186   17.9944 H   0  0  0  0  0  0  0  0  0  0  0  0
   13.9638   18.6065   16.9869 H   0  0  0  0  0  0  0  0  0  0  0  0
   10.6661   16.3907   15.9441 H   0  0  0  0  0  0  0  0  0  0  0  0
   18.7804   25.7944   18.6167 H   0  0  0  0  0  0  0  0  0  0  0  0
   19.7437   24.3650   18.2327 H   0  0  0  0  0  0  0  0  0  0  0  0
   17.3570   24.3773   20.1302 H   0  0  0  0  0  0  0  0  0  0  0  0
   18.1253   22.0791   20.7017 H   0  0  0  0  0  0  0  0  0  0  0  0
   19.3940   22.1797   19.4689 H   0  0  0  0  0  0  0  0  0  0  0  0
   17.6870   22.1625   18.9873 H   0  0  0  0  0  0  0  0  0  0  0  0
   19.3570   25.5527   21.0523 H   0  0  0  0  0  0  0  0  0  0  0  0
   20.3506   24.1242   20.6967 H   0  0  0  0  0  0  0  0  0  0  0  0
   19.0454   24.0201   21.8895 H   0  0  0  0  0  0  0  0  0  0  0  0
   16.2641   25.4550   16.4085 H   0  0  0  0  0  0  0  0  0  0  0  0
   16.5870   26.0119   18.0218 H   0  0  0  0  0  0  0  0  0  0  0  0
   15.7221   23.7506   18.8709 H   0  0  0  0  0  0  0  0  0  0  0  0
   13.9120   25.4673   17.5160 H   0  0  0  0  0  0  0  0  0  0  0  0
   15.8854   22.5076   16.7174 H   0  0  0  0  0  0  0  0  0  0  0  0
   13.1338   22.4851   17.9476 H   0  0  0  0  0  0  0  0  0  0  0  0
   14.8451   24.2556   15.1659 H   0  0  0  0  0  0  0  0  0  0  0  0
   13.3157   24.0225   15.9955 H   0  0  0  0  0  0  0  0  0  0  0  0
   11.8173   22.4004   15.1829 H   0  0  0  0  0  0  0  0  0  0  0  0
   11.3496   20.3566   13.8898 H   0  0  0  0  0  0  0  0  0  0  0  0
   13.1659   19.2642   12.5860 H   0  0  0  0  0  0  0  0  0  0  0  0
   15.5027   20.0765   12.8265 H   0  0  0  0  0  0  0  0  0  0  0  0
   15.9998   22.0315   14.2326 H   0  0  0  0  0  0  0  0  0  0  0  0
   17.7414   26.6410   14.7352 H   0  0  0  0  0  0  0  0  0  0  0  0
   21.2768   24.6748   16.2491 H   0  0  0  0  0  0  0  0  0  0  0  0
   19.1024   28.6326   14.1521 H   0  0  0  0  0  0  0  0  0  0  0  0
   22.5748   26.6588   15.7920 H   0  0  0  0  0  0  0  0  0  0  0  0
   23.4708   29.8268   14.7208 H   0  0  0  0  0  0  0  0  0  0  0  0
   23.4573   28.0903   14.3571 H   0  0  0  0  0  0  0  0  0  0  0  0
   23.1334   28.6892   16.0314 H   0  0  0  0  0  0  0  0  0  0  0  0
  1  2  2  0  0  0  0
  1  3  1  0  0  0  0
  1 22  1  0  0  0  0
  3  4  1  0  0  0  0
  4  5  1  0  0  0  0
  4 11  1  0  0  0  0
  4 41  1  1  0  0  0
  5  6  1  0  0  0  0
  5 42  1  0  0  0  0
  5 43  1  0  0  0  0
  6  7  1  0  0  0  0
  6 10  1  0  0  0  0
  6 44  1  1  0  0  0
  7  8  1  0  0  0  0
  8  9  1  0  0  0  0
  8 45  1  0  0  0  0
  8 46  1  0  0  0  0
  9 10  1  0  0  0  0
  9 12  1  0  0  0  0
  9 47  1  6  0  0  0
 10 11  1  0  0  0  0
 10 48  1  6  0  0  0
 11 49  1  0  0  0  0
 11 50  1  0  0  0  0
 12 51  1  0  0  0  0
 13 14  1  0  0  0  0
 13 18  1  0  0  0  0
 13 30  1  0  0  0  0
 14 15  1  0  0  0  0
 14 52  1  0  0  0  0
 14 53  1  0  0  0  0
 15 16  1  0  0  0  0
 15 17  1  0  0  0  0
 15 54  1  0  0  0  0
 16 55  1  0  0  0  0
 16 56  1  0  0  0  0
 16 57  1  0  0  0  0
 17 58  1  0  0  0  0
 17 59  1  0  0  0  0
 17 60  1  0  0  0  0
 18 19  1  0  0  0  0
 18 61  1  0  0  0  0
 18 62  1  0  0  0  0
 19 20  1  0  0  0  0
 19 21  1  0  0  0  0
 19 63  1  1  0  0  0
 20 64  1  0  0  0  0
 21 22  1  0  0  0  0
 21 23  1  0  0  0  0
 21 65  1  6  0  0  0
 22 66  1  0  0  0  0
 23 29  1  0  0  0  0
 23 67  1  0  0  0  0
 23 68  1  0  0  0  0
 24 25  2  0  0  0  0
 24 29  1  0  0  0  0
 24 69  1  0  0  0  0
 25 26  1  0  0  0  0
 25 70  1  0  0  0  0
 26 27  2  0  0  0  0
 26 71  1  0  0  0  0
 27 28  1  0  0  0  0
 27 72  1  0  0  0  0
 28 29  2  0  0  0  0
 28 73  1  0  0  0  0
 30 31  2  0  0  0  0
 30 32  2  0  0  0  0
 30 33  1  0  0  0  0
 33 34  2  0  0  0  0
 33 35  1  0  0  0  0
 34 36  1  0  0  0  0
 34 74  1  0  0  0  0
 35 37  2  0  0  0  0
 35 75  1  0  0  0  0
 36 38  2  0  0  0  0
 36 76  1  0  0  0  0
 37 38  1  0  0  0  0
 37 77  1  0  0  0  0
 38 39  1  0  0  0  0
 39 40  1  0  0  0  0
 40 78  1  0  0  0  0
 40 79  1  0  0  0  0
 40 80  1  0  0  0  0
M  END
$$$$
