GAB
 OpenBabel04091912313D

 16 16  0  0  0  0  0  0  0  0999 V2000
   15.8326   -7.0132   11.2041 C   0  0  0  0  0  0  0  0  0  0  0  0
   14.6258   -6.6165   11.1949 O   0  0  0  0  0  0  0  0  0  0  0  0
   16.8470   -6.3334   11.5662 O   0  0  0  0  0  0  0  0  0  0  0  0
   16.0928   -8.4140   10.7359 C   0  0  0  0  0  0  0  0  0  0  0  0
   17.1856   -9.1406   11.2109 C   0  0  0  0  0  0  0  0  0  0  0  0
   17.4072  -10.4332   10.7519 C   0  0  0  0  0  0  0  0  0  0  0  0
   16.5621  -11.0199    9.8170 C   0  0  0  0  0  0  0  0  0  0  0  0
   15.4781  -10.3092    9.3354 C   0  0  0  0  0  0  0  0  0  0  0  0
   15.2410   -9.0180    9.7952 C   0  0  0  0  0  0  0  0  0  0  0  0
   18.4782  -11.1650   11.2195 N   0  0  0  0  0  0  0  0  0  0  0  0
   17.8554   -8.6855   11.9395 H   0  0  0  0  0  0  0  0  0  0  0  0
   16.7553  -12.0284    9.4697 H   0  0  0  0  0  0  0  0  0  0  0  0
   14.8148  -10.7532    8.6076 H   0  0  0  0  0  0  0  0  0  0  0  0
   14.3967   -8.4527    9.4245 H   0  0  0  0  0  0  0  0  0  0  0  0
   19.0991  -10.7373   11.9029 H   0  0  0  0  0  0  0  0  0  0  0  0
   18.6189  -12.0999   10.8683 H   0  0  0  0  0  0  0  0  0  0  0  0
  1  2  2  0  0  0  0
  1  3  1  0  0  0  0
  1  4  1  0  0  0  0
  4  5  2  0  0  0  0
  4  9  1  0  0  0  0
  5  6  1  0  0  0  0
  5 11  1  0  0  0  0
  6  7  2  0  0  0  0
  6 10  1  0  0  0  0
  7  8  1  0  0  0  0
  7 12  1  0  0  0  0
  8  9  2  0  0  0  0
  8 13  1  0  0  0  0
  9 14  1  0  0  0  0
 10 15  1  0  0  0  0
 10 16  1  0  0  0  0
M  END
$$$$
