GDP
 OpenBabel04091913423D

 40 42  0  0  1  0  0  0  0  0999 V2000
  -25.0026   -7.4098   15.7439 P   0  0  0  0  0  0  0  0  0  0  0  0
  -26.1516   -8.3958   15.8375 O   0  0  0  0  0  0  0  0  0  0  0  0
  -25.4228   -5.9712   15.4280 O   0  0  0  0  0  0  0  0  0  0  0  0
  -24.1439   -7.4747   17.0084 O   0  0  0  0  0  0  0  0  0  0  0  0
  -24.0193   -7.8908   14.5005 O   0  0  0  0  0  0  0  0  0  0  0  0
  -24.7076   -8.7789   13.3347 P   0  0  2  0  0  0  0  0  0  0  0  0
  -26.1835   -8.5024   13.2026 O   0  0  0  0  0  0  0  0  0  0  0  0
  -24.2112  -10.2188   13.2695 O   0  0  0  0  0  0  0  0  0  0  0  0
  -24.0673   -8.0893   11.9665 O   0  0  0  0  0  0  0  0  0  0  0  0
  -25.1095   -7.7950   11.0515 C   0  0  0  0  0  0  0  0  0  0  0  0
  -24.7106   -8.2704    9.7060 C   0  0  1  0  0  0  0  0  0  0  0  0
  -25.9045   -8.4735    8.8969 O   0  0  0  0  0  0  0  0  0  0  0  0
  -23.8527   -7.2411    8.9673 C   0  0  1  0  0  0  0  0  0  0  0  0
  -22.4957   -7.7050    8.8409 O   0  0  0  0  0  0  0  0  0  0  0  0
  -24.4852   -7.2147    7.5919 C   0  0  1  0  0  0  0  0  0  0  0  0
  -23.4207   -7.3478    6.6258 O   0  0  0  0  0  0  0  0  0  0  0  0
  -25.3309   -8.4877    7.6224 C   0  0  2  0  0  0  0  0  0  0  0  0
  -26.2481   -8.6968    6.5362 N   0  3  0  0  0  0  0  0  0  0  0  0
  -27.4934   -9.2419    6.4616 C   0  0  0  0  0  0  0  0  0  0  0  0
  -27.9153   -9.3709    5.2012 N   0  0  0  0  0  0  0  0  0  0  0  0
  -26.8818   -8.9301    4.4201 C   0  0  0  0  0  0  0  0  0  0  0  0
  -26.6555   -8.7912    2.9638 C   0  0  0  0  0  0  0  0  0  0  0  0
  -27.4482   -9.0864    2.0683 O   0  0  0  0  0  0  0  0  0  0  0  0
  -25.4121   -8.2663    2.6040 N   0  3  0  0  0  0  0  0  0  0  0  0
  -24.4408   -7.9139    3.5454 C   0  0  0  0  0  0  0  0  0  0  0  0
  -23.3671   -7.4552    3.1551 N   0  0  0  0  0  0  0  0  0  0  0  0
  -24.7240   -8.0999    4.8430 N   0  3  0  0  0  0  0  0  0  0  0  0
  -25.8799   -8.5486    5.2516 C   0  0  0  0  0  0  0  0  0  0  0  0
  -25.3030   -6.7219   11.0518 H   0  0  0  0  0  0  0  0  0  0  0  0
  -26.0457   -8.3099   11.2790 H   0  0  0  0  0  0  0  0  0  0  0  0
  -24.1572   -9.2195    9.7731 H   0  0  0  0  0  0  0  0  0  0  0  0
  -23.8762   -6.2543    9.4320 H   0  0  0  0  0  0  0  0  0  0  0  0
  -21.9874   -7.0127    8.3823 H   0  0  0  0  0  0  0  0  0  0  0  0
  -25.0800   -6.3083    7.3984 H   0  0  0  0  0  0  0  0  0  0  0  0
  -23.0275   -8.2335    6.8266 H   0  0  0  0  0  0  0  0  0  0  0  0
  -24.6436   -9.3358    7.5663 H   0  0  0  0  0  0  0  0  0  0  0  0
  -28.0488   -9.5221    7.3464 H   0  0  0  0  0  0  0  0  0  0  0  0
  -25.2194   -8.1451    1.6354 H   0  0  0  0  0  0  0  0  0  0  0  0
  -22.7953   -7.2501    3.9897 H   0  0  0  0  0  0  0  0  0  0  0  0
  -23.9907   -7.7586    5.4305 H   0  0  0  0  0  0  0  0  0  0  0  0
  1  2  2  0  0  0  0
  1  3  1  0  0  0  0
  1  4  1  0  0  0  0
  1  5  1  0  0  0  0
  6  5  1  1  0  0  0
  6  7  2  0  0  0  0
  6  8  1  0  0  0  0
  6  9  1  0  0  0  0
  9 10  1  0  0  0  0
 10 11  1  0  0  0  0
 10 29  1  0  0  0  0
 10 30  1  0  0  0  0
 11 12  1  0  0  0  0
 11 13  1  0  0  0  0
 11 31  1  1  0  0  0
 12 17  1  0  0  0  0
 13 14  1  0  0  0  0
 13 15  1  0  0  0  0
 13 32  1  1  0  0  0
 14 33  1  0  0  0  0
 15 16  1  0  0  0  0
 15 17  1  0  0  0  0
 15 34  1  6  0  0  0
 16 35  1  0  0  0  0
 17 18  1  0  0  0  0
 17 36  1  6  0  0  0
 18 19  2  0  0  0  0
 18 28  1  0  0  0  0
 19 20  1  0  0  0  0
 19 37  1  0  0  0  0
 20 21  2  0  0  0  0
 21 22  1  0  0  0  0
 21 28  1  0  0  0  0
 22 23  2  0  0  0  0
 22 24  1  0  0  0  0
 24 25  1  0  0  0  0
 24 38  1  0  0  0  0
 25 26  2  0  0  0  0
 25 27  1  0  0  0  0
 26 39  1  0  0  0  0
 27 28  2  0  0  0  0
 27 40  1  0  0  0  0
M  CHG  3  18   1  24   1  27   1
M  END
$$$$
