GEN
 OpenBabel04091913273D

 29 31  0  0  0  0  0  0  0  0999 V2000
   22.4224   43.0886   34.7432 C   0  0  0  0  0  0  0  0  0  0  0  0
   21.5417   42.4806   33.8929 C   0  0  0  0  0  0  0  0  0  0  0  0
   21.7389   42.6217   32.5436 O   0  0  0  0  0  0  0  0  0  0  0  0
   20.4723   41.7417   34.3700 C   0  0  0  0  0  0  0  0  0  0  0  0
   20.2138   41.5605   35.7196 C   0  0  0  0  0  0  0  0  0  0  0  0
   19.2269   40.8736   36.0995 O   0  0  0  0  0  0  0  0  0  0  0  0
   21.1538   42.2100   36.5592 C   0  0  0  0  0  0  0  0  0  0  0  0
   20.9866   42.0825   37.9752 C   0  0  0  0  0  0  0  0  0  0  0  0
   20.0655   41.4606   38.5293 O   0  0  0  0  0  0  0  0  0  0  0  0
   21.9491   42.7212   38.8542 C   0  0  0  0  0  0  0  0  0  0  0  0
   22.9354   43.4072   38.3022 C   0  0  0  0  0  0  0  0  0  0  0  0
   23.1496   43.5843   36.9587 O   0  3  0  0  0  0  0  0  0  0  0  0
   22.2386   42.9596   36.1215 C   0  0  0  0  0  0  0  0  0  0  0  0
   21.8185   42.6225   40.2715 C   0  0  0  0  0  0  0  0  0  0  0  0
   21.8115   41.3764   40.8825 C   0  0  0  0  0  0  0  0  0  0  0  0
   21.7059   41.3183   42.2667 C   0  0  0  0  0  0  0  0  0  0  0  0
   21.6034   42.4954   42.9949 C   0  0  0  0  0  0  0  0  0  0  0  0
   21.5096   42.4165   44.3536 O   0  0  0  0  0  0  0  0  0  0  0  0
   21.6007   43.7317   42.3670 C   0  0  0  0  0  0  0  0  0  0  0  0
   21.6970   43.7966   40.9895 C   0  0  0  0  0  0  0  0  0  0  0  0
   23.2588   43.6729   34.3792 H   0  0  0  0  0  0  0  0  0  0  0  0
   21.0232   42.1242   32.1099 H   0  0  0  0  0  0  0  0  0  0  0  0
   19.7820   41.2680   33.6759 H   0  0  0  0  0  0  0  0  0  0  0  0
   23.6743   43.8977   38.9267 H   0  0  0  0  0  0  0  0  0  0  0  0
   21.8883   40.4628   40.2895 H   0  0  0  0  0  0  0  0  0  0  0  0
   21.7029   40.3596   42.7539 H   0  0  0  0  0  0  0  0  0  0  0  0
   21.4431   43.3195   44.7055 H   0  0  0  0  0  0  0  0  0  0  0  0
   21.5222   44.6455   42.9245 H   0  0  0  0  0  0  0  0  0  0  0  0
   21.6918   44.7513   40.4731 H   0  0  0  0  0  0  0  0  0  0  0  0
  1  2  2  0  0  0  0
  1 13  1  0  0  0  0
  1 21  1  0  0  0  0
  2  3  1  0  0  0  0
  2  4  1  0  0  0  0
  3 22  1  0  0  0  0
  4  5  2  0  0  0  0
  4 23  1  0  0  0  0
  5  6  1  0  0  0  0
  5  7  1  0  0  0  0
  7  8  1  0  0  0  0
  7 13  2  0  0  0  0
  8  9  2  0  0  0  0
  8 10  1  0  0  0  0
 10 11  2  0  0  0  0
 10 14  1  0  0  0  0
 11 12  1  0  0  0  0
 11 24  1  0  0  0  0
 12 13  1  0  0  0  0
 14 15  2  0  0  0  0
 14 20  1  0  0  0  0
 15 16  1  0  0  0  0
 15 25  1  0  0  0  0
 16 17  2  0  0  0  0
 16 26  1  0  0  0  0
 17 18  1  0  0  0  0
 17 19  1  0  0  0  0
 18 27  1  0  0  0  0
 19 20  2  0  0  0  0
 19 28  1  0  0  0  0
 20 29  1  0  0  0  0
M  CHG  1  12   1
M  END
$$$$
