GF4
 OpenBabel04091912463D

 23 24  0  0  1  0  0  0  0  0999 V2000
  -36.4323    5.7559    9.6607 O   0  0  0  0  0  0  0  0  0  0  0  0
  -37.0430    5.7059   10.7166 C   0  0  0  0  0  0  0  0  0  0  0  0
  -36.6576    6.5137   11.9237 C   0  0  2  0  0  0  0  0  0  0  0  0
  -35.2725    7.0900   12.1086 C   0  0  0  0  0  0  0  0  0  0  0  0
  -34.2677    6.1408   12.6971 C   0  0  0  0  0  0  0  0  0  0  0  0
  -37.6041    6.0352   12.9927 C   0  0  0  0  0  0  0  0  0  0  0  0
  -37.5544    6.4481   14.4079 C   0  0  0  0  0  0  0  0  0  0  0  0
  -38.5560    5.2951   12.4749 N   0  0  0  0  0  0  0  0  0  0  0  0
  -38.2290    5.1278   11.1070 N   0  0  0  0  0  0  0  0  0  0  0  0
  -39.0358    4.4659   10.2191 C   0  0  0  0  0  0  0  0  0  0  0  0
  -40.1303    3.7238   10.5908 N   0  0  0  0  0  0  0  0  0  0  0  0
  -40.6044    3.1950    9.4305 N   0  0  0  0  0  0  0  0  0  0  0  0
  -39.8526    3.6359    8.3936 N   0  0  0  0  0  0  0  0  0  0  0  0
  -38.8728    4.4238    8.8643 N   0  0  0  0  0  0  0  0  0  0  0  0
  -37.1630    7.4539   11.6623 H   0  0  0  0  0  0  0  0  0  0  0  0
  -35.3687    7.9686   12.7549 H   0  0  0  0  0  0  0  0  0  0  0  0
  -34.9072    7.4632   11.1399 H   0  0  0  0  0  0  0  0  0  0  0  0
  -33.2985    6.6547   12.8262 H   0  0  0  0  0  0  0  0  0  0  0  0
  -34.1229    5.2881   12.0374 H   0  0  0  0  0  0  0  0  0  0  0  0
  -34.6041    5.7992   13.6726 H   0  0  0  0  0  0  0  0  0  0  0  0
  -38.4396    6.0891   14.9408 H   0  0  0  0  0  0  0  0  0  0  0  0
  -37.5354    7.5419   14.4775 H   0  0  0  0  0  0  0  0  0  0  0  0
  -36.6651    6.0520   14.8995 H   0  0  0  0  0  0  0  0  0  0  0  0
  1  2  2  0  0  0  0
  2  3  1  0  0  0  0
  2  9  1  0  0  0  0
  3  4  1  0  0  0  0
  3  6  1  0  0  0  0
  3 15  1  6  0  0  0
  4  5  1  0  0  0  0
  4 16  1  0  0  0  0
  4 17  1  0  0  0  0
  5 18  1  0  0  0  0
  5 19  1  0  0  0  0
  5 20  1  0  0  0  0
  6  7  1  0  0  0  0
  6  8  2  0  0  0  0
  7 21  1  0  0  0  0
  7 22  1  0  0  0  0
  7 23  1  0  0  0  0
  8  9  1  0  0  0  0
  9 10  1  0  0  0  0
 10 11  1  0  0  0  0
 10 14  2  0  0  0  0
 11 12  1  0  0  0  0
 12 13  2  0  0  0  0
 13 14  1  0  0  0  0
M  END
$$$$
