GF4
 OpenBabel04091912393D

 23 24  0  0  0  0  0  0  0  0999 V2000
   -4.8375   51.2204   12.8865 O   0  0  0  0  0  0  0  0  0  0  0  0
   -5.0774   52.3355   12.4863 C   0  0  0  0  0  0  0  0  0  0  0  0
   -6.4609   52.8550   12.1119 C   0  0  0  0  0  0  0  0  0  0  0  0
   -7.6827   52.0242   12.3355 C   0  0  0  0  0  0  0  0  0  0  0  0
   -8.6183   52.7178   13.3062 C   0  0  0  0  0  0  0  0  0  0  0  0
   -6.3091   54.1150   11.6339 C   0  0  0  0  0  0  0  0  0  0  0  0
   -7.3163   55.1174   11.1799 C   0  0  0  0  0  0  0  0  0  0  0  0
   -4.9704   54.4444   11.6246 N   0  3  0  0  0  0  0  0  0  0  0  0
   -4.2440   53.4017   12.1781 N   0  3  0  0  0  0  0  0  0  0  0  0
   -2.8918   53.3321   12.2211 C   0  0  0  0  0  0  0  0  0  0  0  0
   -2.1107   53.5890   11.1529 N   0  0  0  0  0  0  0  0  0  0  0  0
   -0.8588   53.4249   11.6417 N   0  0  0  0  0  0  0  0  0  0  0  0
   -0.9204   53.1511   12.9691 N   0  0  0  0  0  0  0  0  0  0  0  0
   -2.2115   53.0888   13.3537 N   0  0  0  0  0  0  0  0  0  0  0  0
   -7.4479   51.0302   12.7366 H   0  0  0  0  0  0  0  0  0  0  0  0
   -8.2068   51.8610   11.3863 H   0  0  0  0  0  0  0  0  0  0  0  0
   -9.5371   52.1442   13.4556 H   0  0  0  0  0  0  0  0  0  0  0  0
   -8.9024   53.6971   12.9211 H   0  0  0  0  0  0  0  0  0  0  0  0
   -8.1270   52.8547   14.2743 H   0  0  0  0  0  0  0  0  0  0  0  0
   -6.8719   56.0680   10.8587 H   0  0  0  0  0  0  0  0  0  0  0  0
   -8.0171   55.3634   11.9820 H   0  0  0  0  0  0  0  0  0  0  0  0
   -7.8779   54.7181   10.3315 H   0  0  0  0  0  0  0  0  0  0  0  0
   -4.5196   55.3139   11.3399 H   0  0  0  0  0  0  0  0  0  0  0  0
  1  2  2  0  0  0  0
  2  3  1  0  0  0  0
  2  9  1  0  0  0  0
  3  4  1  0  0  0  0
  3  6  2  0  0  0  0
  4  5  1  0  0  0  0
  4 15  1  0  0  0  0
  4 16  1  0  0  0  0
  5 17  1  0  0  0  0
  5 18  1  0  0  0  0
  5 19  1  0  0  0  0
  6  7  1  0  0  0  0
  6  8  1  0  0  0  0
  7 20  1  0  0  0  0
  7 21  1  0  0  0  0
  7 22  1  0  0  0  0
  8  9  2  0  0  0  0
  8 23  1  0  0  0  0
  9 10  1  0  0  0  0
 10 11  1  0  0  0  0
 10 14  2  0  0  0  0
 11 12  1  0  0  0  0
 12 13  2  0  0  0  0
 13 14  1  0  0  0  0
M  CHG  2   8   1   9   1
M  END
$$$$
