GF7
 OpenBabel04091912463D

 30 31  0  0  1  0  0  0  0  0999 V2000
  -37.1714   13.5878   16.3997 O   0  0  0  0  0  0  0  0  0  0  0  0
  -36.9153   13.6514   17.5914 C   0  0  0  0  0  0  0  0  0  0  0  0
  -37.7064   14.5713   18.4921 C   0  0  0  0  0  0  0  0  0  0  0  0
  -35.8420   12.7862   18.1696 C   0  0  0  0  0  0  0  0  0  0  0  0
  -35.5668   12.7817   19.5421 C   0  0  0  0  0  0  0  0  0  0  0  0
  -34.5571   11.9831   20.0602 C   0  0  0  0  0  0  0  0  0  0  0  0
  -35.1021   11.9518   17.3193 C   0  0  0  0  0  0  0  0  0  0  0  0
  -34.0977   11.1384   17.8363 C   0  0  0  0  0  0  0  0  0  0  0  0
  -33.8186   11.1749   19.2017 C   0  0  0  0  0  0  0  0  0  0  0  0
  -32.8157   10.3689   19.7176 N   0  0  0  0  0  0  0  0  0  0  0  0
  -32.9818    9.0061   19.9149 C   0  0  0  0  0  0  0  0  0  0  0  0
  -33.9675    8.3358   19.6401 O   0  0  0  0  0  0  0  0  0  0  0  0
  -31.5519   10.8993   20.1667 C   0  0  0  0  0  0  0  0  0  0  0  0
  -30.7685    9.6810   20.6083 C   0  0  2  0  0  0  0  0  0  0  0  0
  -31.7438    8.4951   20.6001 C   0  0  0  0  0  0  0  0  0  0  0  0
  -30.1506    9.8937   21.9892 C   0  0  0  0  0  0  0  0  0  0  0  0
  -30.0959   11.0840   22.4054 O   0  0  0  0  0  0  0  0  0  0  0  0
  -29.7257    8.8444   22.5487 O   0  0  0  0  0  0  0  0  0  0  0  0
  -37.4013   14.5128   19.5289 H   0  0  0  0  0  0  0  0  0  0  0  0
  -38.7650   14.3076   18.4455 H   0  0  0  0  0  0  0  0  0  0  0  0
  -37.5553   15.5987   18.1631 H   0  0  0  0  0  0  0  0  0  0  0  0
  -36.1187   13.3819   20.2450 H   0  0  0  0  0  0  0  0  0  0  0  0
  -34.3594   11.9735   21.1312 H   0  0  0  0  0  0  0  0  0  0  0  0
  -35.3009   11.9371   16.2503 H   0  0  0  0  0  0  0  0  0  0  0  0
  -33.5109   10.4978   17.1814 H   0  0  0  0  0  0  0  0  0  0  0  0
  -31.7109   11.6560   20.9410 H   0  0  0  0  0  0  0  0  0  0  0  0
  -31.0618   11.4011   19.3163 H   0  0  0  0  0  0  0  0  0  0  0  0
  -29.9672    9.4782   19.8880 H   0  0  0  0  0  0  0  0  0  0  0  0
  -31.3449    7.6581   20.0178 H   0  0  0  0  0  0  0  0  0  0  0  0
  -31.9933    8.1425   21.6073 H   0  0  0  0  0  0  0  0  0  0  0  0
  1  2  2  0  0  0  0
  2  3  1  0  0  0  0
  2  4  1  0  0  0  0
  3 19  1  0  0  0  0
  3 20  1  0  0  0  0
  3 21  1  0  0  0  0
  4  5  2  0  0  0  0
  4  7  1  0  0  0  0
  5  6  1  0  0  0  0
  5 22  1  0  0  0  0
  6  9  2  0  0  0  0
  6 23  1  0  0  0  0
  7  8  2  0  0  0  0
  7 24  1  0  0  0  0
  8  9  1  0  0  0  0
  8 25  1  0  0  0  0
  9 10  1  0  0  0  0
 10 11  1  0  0  0  0
 10 13  1  0  0  0  0
 11 12  2  0  0  0  0
 11 15  1  0  0  0  0
 13 14  1  0  0  0  0
 13 26  1  0  0  0  0
 13 27  1  0  0  0  0
 14 15  1  0  0  0  0
 14 16  1  0  0  0  0
 14 28  1  6  0  0  0
 15 29  1  0  0  0  0
 15 30  1  0  0  0  0
 16 17  2  0  0  0  0
 16 18  1  0  0  0  0
M  END
$$$$
