GHR
 OpenBabel04091911233D

 40 41  0  0  1  0  0  0  0  0999 V2000
   30.4930   65.1310    9.9918 C   0  0  0  0  0  0  0  0  0  0  0  0
   29.6460   65.7559    9.2173 N   0  0  0  0  0  0  0  0  0  0  0  0
   29.7250   65.9982    7.7673 C   0  0  2  0  0  0  0  0  0  0  0  0
   28.5108   65.3248    7.1203 C   0  0  0  0  0  0  0  0  0  0  0  0
   27.3208   65.7329    7.7956 O   0  0  0  0  0  0  0  0  0  0  0  0
   31.0477   65.5421    7.1481 C   0  0  1  0  0  0  0  0  0  0  0  0
   31.4216   66.5125    6.1672 O   0  0  0  0  0  0  0  0  0  0  0  0
   32.1637   65.4242    8.1983 C   0  0  2  0  0  0  0  0  0  0  0  0
   33.3346   64.8869    7.5792 O   0  0  0  0  0  0  0  0  0  0  0  0
   31.6818   64.4926    9.3263 C   0  0  1  0  0  0  0  0  0  0  0  0
   32.6702   64.2211   10.3343 O   0  0  0  0  0  0  0  0  0  0  0  0
   30.4660   65.0004   11.3094 N   0  3  0  0  0  0  0  0  0  0  0  0
   31.3748   67.9706   17.9130 Cl  0  0  0  0  0  0  0  0  0  0  0  0
   30.5756   67.8954   16.3930 C   0  0  0  0  0  0  0  0  0  0  0  0
   31.2685   67.3994   15.2879 C   0  0  0  0  0  0  0  0  0  0  0  0
   30.6213   67.3371   14.0554 C   0  0  0  0  0  0  0  0  0  0  0  0
   29.2592   68.3329   16.2774 C   0  0  0  0  0  0  0  0  0  0  0  0
   28.6064   68.2729   15.0332 C   0  0  0  0  0  0  0  0  0  0  0  0
   29.2850   67.7368   13.9388 C   0  0  0  0  0  0  0  0  0  0  0  0
   28.5791   67.6179   12.7391 N   0  0  0  0  0  0  0  0  0  0  0  0
   28.7202   66.6187   11.8148 C   0  0  0  0  0  0  0  0  0  0  0  0
   28.0943   66.6462   10.7700 O   0  0  0  0  0  0  0  0  0  0  0  0
   29.5671   65.6024   12.1920 O   0  0  0  0  0  0  0  0  0  0  0  0
   28.7631   66.0899    9.6206 H   0  0  0  0  0  0  0  0  0  0  0  0
   29.6100   67.0827    7.6554 H   0  0  0  0  0  0  0  0  0  0  0  0
   28.5762   64.2352    7.2170 H   0  0  0  0  0  0  0  0  0  0  0  0
   28.4343   65.5793    6.0607 H   0  0  0  0  0  0  0  0  0  0  0  0
   27.1742   66.6825    7.6316 H   0  0  0  0  0  0  0  0  0  0  0  0
   30.9248   64.5809    6.6341 H   0  0  0  0  0  0  0  0  0  0  0  0
   32.1573   66.1587    5.6343 H   0  0  0  0  0  0  0  0  0  0  0  0
   32.4428   66.4065    8.5983 H   0  0  0  0  0  0  0  0  0  0  0  0
   33.6696   65.5331    6.9268 H   0  0  0  0  0  0  0  0  0  0  0  0
   31.3793   63.5234    8.9077 H   0  0  0  0  0  0  0  0  0  0  0  0
   33.3111   64.9549   10.3577 H   0  0  0  0  0  0  0  0  0  0  0  0
   32.3038   67.0828   15.3733 H   0  0  0  0  0  0  0  0  0  0  0  0
   31.2017   67.0113   13.1992 H   0  0  0  0  0  0  0  0  0  0  0  0
   28.7270   68.7119   17.1420 H   0  0  0  0  0  0  0  0  0  0  0  0
   27.5710   68.5859   14.9673 H   0  0  0  0  0  0  0  0  0  0  0  0
   27.8037   68.2429   12.5635 H   0  0  0  0  0  0  0  0  0  0  0  0
   31.2214   64.4658   11.7506 H   0  0  0  0  0  0  0  0  0  0  0  0
  1  2  1  0  0  0  0
  1 10  1  0  0  0  0
  1 12  2  0  0  0  0
  2  3  1  0  0  0  0
  2 24  1  0  0  0  0
  3  4  1  0  0  0  0
  3  6  1  0  0  0  0
  3 25  1  6  0  0  0
  4  5  1  0  0  0  0
  4 26  1  0  0  0  0
  4 27  1  0  0  0  0
  5 28  1  0  0  0  0
  6  7  1  0  0  0  0
  6  8  1  0  0  0  0
  6 29  1  6  0  0  0
  7 30  1  0  0  0  0
  8  9  1  0  0  0  0
  8 10  1  0  0  0  0
  8 31  1  1  0  0  0
  9 32  1  0  0  0  0
 10 11  1  0  0  0  0
 10 33  1  6  0  0  0
 11 34  1  0  0  0  0
 12 23  1  0  0  0  0
 12 40  1  0  0  0  0
 13 14  1  0  0  0  0
 14 15  2  0  0  0  0
 14 17  1  0  0  0  0
 15 16  1  0  0  0  0
 15 35  1  0  0  0  0
 16 19  2  0  0  0  0
 16 36  1  0  0  0  0
 17 18  2  0  0  0  0
 17 37  1  0  0  0  0
 18 19  1  0  0  0  0
 18 38  1  0  0  0  0
 19 20  1  0  0  0  0
 20 21  1  0  0  0  0
 20 39  1  0  0  0  0
 21 22  2  0  0  0  0
 21 23  1  0  0  0  0
M  CHG  1  12   1
M  END
$$$$
