GK5
 OpenBabel04091911253D

 46 49  0  0  1  0  0  0  0  0999 V2000
   39.6302   32.2744   30.2144 C   0  0  0  0  0  0  0  0  0  0  0  0
   37.0348   26.7033   36.5901 C   0  0  0  0  0  0  0  0  0  0  0  0
   37.9740   27.3287   37.2359 C   0  0  0  0  0  0  0  0  0  0  0  0
   38.3128   26.7880   35.9555 C   0  0  2  0  0  0  0  0  0  0  0  0
   49.1256   33.9691   30.4033 C   0  0  0  0  0  0  0  0  0  0  0  0
   50.1148   34.2077   31.2147 C   0  0  0  0  0  0  0  0  0  0  0  0
   48.7961   34.5009   31.6957 C   0  0  2  0  0  0  0  0  0  0  0  0
   39.5853   31.3157   31.3737 C   0  0  0  0  0  0  0  0  0  0  0  0
   38.4352   30.5301   31.5790 C   0  0  0  0  0  0  0  0  0  0  0  0
   38.3451   29.6376   32.6561 C   0  0  0  0  0  0  0  0  0  0  0  0
   39.4131   29.5083   33.5475 C   0  0  0  0  0  0  0  0  0  0  0  0
   39.4266   28.5994   34.7351 C   0  0  0  0  0  0  0  0  0  0  0  0
   40.3262   28.7022   35.5665 O   0  0  0  0  0  0  0  0  0  0  0  0
   38.4162   27.6645   34.8414 N   0  0  0  0  0  0  0  0  0  0  0  0
   40.5525   30.2968   33.3460 C   0  0  0  0  0  0  0  0  0  0  0  0
   40.6632   31.2009   32.2747 C   0  0  0  0  0  0  0  0  0  0  0  0
   41.8986   31.9891   32.1788 C   0  0  0  0  0  0  0  0  0  0  0  0
   42.9850   31.5403   31.4125 C   0  0  0  0  0  0  0  0  0  0  0  0
   44.2132   32.2146   31.4416 C   0  0  0  0  0  0  0  0  0  0  0  0
   44.3774   33.3417   32.2567 C   0  0  0  0  0  0  0  0  0  0  0  0
   43.2854   33.8162   32.9925 C   0  0  0  0  0  0  0  0  0  0  0  0
   42.0596   33.1445   32.9550 C   0  0  0  0  0  0  0  0  0  0  0  0
   45.6944   34.0204   32.4640 C   0  0  0  0  0  0  0  0  0  0  0  0
   45.7399   35.1764   32.8648 O   0  0  0  0  0  0  0  0  0  0  0  0
   46.8143   33.2422   32.2667 N   0  0  0  0  0  0  0  0  0  0  0  0
   48.1294   33.6489   32.7164 C   0  0  0  0  0  0  0  0  0  0  0  0
   38.7076   32.2391   29.6249 H   0  0  0  0  0  0  0  0  0  0  0  0
   40.4566   32.0228   29.5422 H   0  0  0  0  0  0  0  0  0  0  0  0
   39.7497   33.3026   30.5718 H   0  0  0  0  0  0  0  0  0  0  0  0
   36.0125   26.4259   36.5300 H   0  0  0  0  0  0  0  0  0  0  0  0
   38.2979   27.9133   38.0602 H   0  0  0  0  0  0  0  0  0  0  0  0
   38.9336   25.9002   35.9356 H   0  0  0  0  0  0  0  0  0  0  0  0
   48.7542   33.6220   29.4748 H   0  0  0  0  0  0  0  0  0  0  0  0
   51.1589   34.1942   31.4154 H   0  0  0  0  0  0  0  0  0  0  0  0
   48.5005   35.5407   31.7464 H   0  0  0  0  0  0  0  0  0  0  0  0
   37.5879   30.6183   30.8994 H   0  0  0  0  0  0  0  0  0  0  0  0
   37.4223   29.0800   32.7767 H   0  0  0  0  0  0  0  0  0  0  0  0
   37.7117   27.5834   34.1248 H   0  0  0  0  0  0  0  0  0  0  0  0
   41.3837   30.2151   34.0484 H   0  0  0  0  0  0  0  0  0  0  0  0
   42.8913   30.6321   30.8196 H   0  0  0  0  0  0  0  0  0  0  0  0
   45.0273   31.8275   30.8368 H   0  0  0  0  0  0  0  0  0  0  0  0
   43.3986   34.6830   33.6406 H   0  0  0  0  0  0  0  0  0  0  0  0
   41.2412   33.5019   33.5779 H   0  0  0  0  0  0  0  0  0  0  0  0
   46.7315   32.3023   31.9166 H   0  0  0  0  0  0  0  0  0  0  0  0
   48.0413   34.1844   33.6685 H   0  0  0  0  0  0  0  0  0  0  0  0
   48.6902   32.7254   32.9071 H   0  0  0  0  0  0  0  0  0  0  0  0
  1  8  1  0  0  0  0
  1 27  1  0  0  0  0
  1 28  1  0  0  0  0
  1 29  1  0  0  0  0
  2  3  2  0  0  0  0
  2  4  1  0  0  0  0
  2 30  1  0  0  0  0
  3  4  1  0  0  0  0
  3 31  1  0  0  0  0
  4 14  1  0  0  0  0
  4 32  1  6  0  0  0
  5  6  2  0  0  0  0
  5  7  1  0  0  0  0
  5 33  1  0  0  0  0
  6  7  1  0  0  0  0
  6 34  1  0  0  0  0
  7 26  1  0  0  0  0
  7 35  1  1  0  0  0
  8  9  2  0  0  0  0
  8 16  1  0  0  0  0
  9 10  1  0  0  0  0
  9 36  1  0  0  0  0
 10 11  2  0  0  0  0
 10 37  1  0  0  0  0
 11 12  1  0  0  0  0
 11 15  1  0  0  0  0
 12 13  2  0  0  0  0
 12 14  1  0  0  0  0
 14 38  1  0  0  0  0
 15 16  2  0  0  0  0
 15 39  1  0  0  0  0
 16 17  1  0  0  0  0
 17 18  2  0  0  0  0
 17 22  1  0  0  0  0
 18 19  1  0  0  0  0
 18 40  1  0  0  0  0
 19 20  2  0  0  0  0
 19 41  1  0  0  0  0
 20 21  1  0  0  0  0
 20 23  1  0  0  0  0
 21 22  2  0  0  0  0
 21 42  1  0  0  0  0
 22 43  1  0  0  0  0
 23 24  2  0  0  0  0
 23 25  1  0  0  0  0
 25 26  1  0  0  0  0
 25 44  1  0  0  0  0
 26 45  1  0  0  0  0
 26 46  1  0  0  0  0
M  END
$$$$
