GLU
 OpenBabel04091912273D

 18 17  0  0  1  0  0  0  0  0999 V2000
   19.0655   16.2749   33.7783 N   0  3  0  0  0  0  0  0  0  0  0  0
   19.3982   15.5851   32.4487 C   0  0  2  0  0  0  0  0  0  0  0  0
   20.9514   15.4424   32.3255 C   0  0  0  0  0  0  0  0  0  0  0  0
   21.4486   14.9452   31.2972 O   0  0  0  0  0  0  0  0  0  0  0  0
   18.8050   16.4395   31.3304 C   0  0  0  0  0  0  0  0  0  0  0  0
   17.2910   16.2845   31.1943 C   0  0  0  0  0  0  0  0  0  0  0  0
   16.8216   14.9030   30.7283 C   0  0  0  0  0  0  0  0  0  0  0  0
   15.5948   14.6927   30.9368 O   0  0  0  0  0  0  0  0  0  0  0  0
   17.7018   14.1419   30.2692 O   0  0  0  0  0  0  0  0  0  0  0  0
   21.5145   15.9049   33.3817 O   0  0  0  0  0  0  0  0  0  0  0  0
   18.0733   16.4140   33.9496 H   0  0  0  0  0  0  0  0  0  0  0  0
   19.5323   15.7044   34.4935 H   0  0  0  0  0  0  0  0  0  0  0  0
   18.9468   14.5922   32.5290 H   0  0  0  0  0  0  0  0  0  0  0  0
   19.2836   16.1973   30.3760 H   0  0  0  0  0  0  0  0  0  0  0  0
   19.0280   17.4991   31.5173 H   0  0  0  0  0  0  0  0  0  0  0  0
   16.9252   17.0130   30.4601 H   0  0  0  0  0  0  0  0  0  0  0  0
   16.7934   16.5126   32.1449 H   0  0  0  0  0  0  0  0  0  0  0  0
   19.6230   17.1369   33.7830 H   0  0  0  0  0  0  0  0  0  0  0  0
  1  2  1  0  0  0  0
  1 11  1  0  0  0  0
  1 12  1  0  0  0  0
  1 18  1  0  0  0  0
  2  3  1  0  0  0  0
  2  5  1  0  0  0  0
  2 13  1  6  0  0  0
  3  4  2  0  0  0  0
  3 10  1  0  0  0  0
  5  6  1  0  0  0  0
  5 14  1  0  0  0  0
  5 15  1  0  0  0  0
  6  7  1  0  0  0  0
  6 16  1  0  0  0  0
  6 17  1  0  0  0  0
  7  8  2  0  0  0  0
  7  9  1  0  0  0  0
M  CHG  1   1   1
M  END
$$$$
