GNL
 OpenBabel04091915223D

 30 31  0  0  1  0  0  0  0  0999 V2000
  -35.4632  -18.9262  -15.8946 C   0  0  2  0  0  0  0  0  0  0  0  0
  -34.0219  -20.0417  -15.7967 S   0  0  0  0  0  0  0  0  0  0  0  0
  -35.1394  -17.9357  -17.0228 C   0  0  2  0  0  0  0  0  0  0  0  0
  -34.2791  -18.7441  -18.0122 N   0  3  0  0  0  0  0  0  0  0  0  0
  -34.3714  -16.6835  -16.5338 C   0  0  1  0  0  0  0  0  0  0  0  0
  -34.4065  -15.6492  -17.5254 O   0  0  0  0  0  0  0  0  0  0  0  0
  -34.9307  -16.1575  -15.1985 C   0  0  1  0  0  0  0  0  0  0  0  0
  -36.2736  -15.6988  -15.4015 O   0  0  0  0  0  0  0  0  0  0  0  0
  -34.9188  -17.3086  -14.1847 C   0  0  2  0  0  0  0  0  0  0  0  0
  -35.7948  -18.3506  -14.6474 O   0  0  0  0  0  0  0  0  0  0  0  0
  -35.3985  -16.8758  -12.7918 C   0  0  0  0  0  0  0  0  0  0  0  0
  -35.1346  -17.9289  -11.8785 O   0  0  0  0  0  0  0  0  0  0  0  0
  -33.1914  -19.4104  -17.2587 C   0  0  2  0  0  0  0  0  0  0  0  0
  -32.5282  -20.5118  -18.0643 C   0  0  0  0  0  0  0  0  0  0  0  0
  -36.3105  -19.5444  -16.2083 H   0  0  0  0  0  0  0  0  0  0  0  0
  -36.0364  -17.6338  -17.5753 H   0  0  0  0  0  0  0  0  0  0  0  0
  -34.8669  -19.4686  -18.4467 H   0  0  0  0  0  0  0  0  0  0  0  0
  -33.3126  -16.9087  -16.3684 H   0  0  0  0  0  0  0  0  0  0  0  0
  -33.9504  -15.8953  -18.3370 H   0  0  0  0  0  0  0  0  0  0  0  0
  -34.3210  -15.3141  -14.8542 H   0  0  0  0  0  0  0  0  0  0  0  0
  -36.5976  -15.3078  -14.5698 H   0  0  0  0  0  0  0  0  0  0  0  0
  -33.9056  -17.7113  -14.0817 H   0  0  0  0  0  0  0  0  0  0  0  0
  -36.4761  -16.6734  -12.7910 H   0  0  0  0  0  0  0  0  0  0  0  0
  -34.8555  -15.9865  -12.4524 H   0  0  0  0  0  0  0  0  0  0  0  0
  -35.4929  -17.6631  -11.0057 H   0  0  0  0  0  0  0  0  0  0  0  0
  -32.4422  -18.6546  -17.0016 H   0  0  0  0  0  0  0  0  0  0  0  0
  -32.0447  -20.0971  -18.9533 H   0  0  0  0  0  0  0  0  0  0  0  0
  -33.2416  -21.2743  -18.3833 H   0  0  0  0  0  0  0  0  0  0  0  0
  -31.7479  -20.9927  -17.4652 H   0  0  0  0  0  0  0  0  0  0  0  0
  -33.9226  -18.1636  -18.7841 H   0  0  0  0  0  0  0  0  0  0  0  0
  1  2  1  0  0  0  0
  1  3  1  0  0  0  0
  1 10  1  0  0  0  0
  1 15  1  6  0  0  0
  2 13  1  0  0  0  0
  3  4  1  0  0  0  0
  3  5  1  0  0  0  0
  3 16  1  6  0  0  0
  4 13  1  0  0  0  0
  4 17  1  0  0  0  0
  4 30  1  0  0  0  0
  5  6  1  0  0  0  0
  5  7  1  0  0  0  0
  5 18  1  1  0  0  0
  6 19  1  0  0  0  0
  7  8  1  0  0  0  0
  7  9  1  0  0  0  0
  7 20  1  1  0  0  0
  8 21  1  0  0  0  0
  9 10  1  0  0  0  0
  9 11  1  0  0  0  0
  9 22  1  1  0  0  0
 11 12  1  0  0  0  0
 11 23  1  0  0  0  0
 11 24  1  0  0  0  0
 12 25  1  0  0  0  0
 13 14  1  0  0  0  0
 13 26  1  1  0  0  0
 14 27  1  0  0  0  0
 14 28  1  0  0  0  0
 14 29  1  0  0  0  0
M  CHG  1   4   1
M  END
$$$$
