GSH
 OpenBabel04091913413D

 36 35  0  0  1  0  0  0  0  0999 V2000
    1.5568   35.5788  -18.6247 N   0  3  0  0  0  0  0  0  0  0  0  0
    0.9206   34.9648  -19.8633 C   0  0  2  0  0  0  0  0  0  0  0  0
    1.0634   35.8573  -21.1316 C   0  0  0  0  0  0  0  0  0  0  0  0
    0.6540   35.3888  -22.2146 O   0  0  0  0  0  0  0  0  0  0  0  0
    1.6222   36.9742  -20.8412 O   0  0  0  0  0  0  0  0  0  0  0  0
   -0.5819   34.7766  -19.6438 C   0  0  0  0  0  0  0  0  0  0  0  0
   -0.9536   33.9510  -18.4261 C   0  0  0  0  0  0  0  0  0  0  0  0
   -0.6348   32.4923  -18.6628 C   0  0  0  0  0  0  0  0  0  0  0  0
   -0.6210   31.9632  -19.7763 O   0  0  0  0  0  0  0  0  0  0  0  0
   -0.3067   31.8504  -17.4975 N   0  0  0  0  0  0  0  0  0  0  0  0
   -0.0720   30.4038  -17.4755 C   0  0  2  0  0  0  0  0  0  0  0  0
   -1.4086   29.6433  -17.2989 C   0  0  0  0  0  0  0  0  0  0  0  0
   -1.6119   28.5716  -17.8663 O   0  0  0  0  0  0  0  0  0  0  0  0
    0.9461   30.1171  -16.3700 C   0  0  0  0  0  0  0  0  0  0  0  0
    1.6217   28.4348  -16.4555 S   0  0  0  0  0  0  0  0  0  0  0  0
   -2.3144   30.2315  -16.4288 N   0  0  0  0  0  0  0  0  0  0  0  0
   -3.4446   29.4346  -15.9244 C   0  0  0  0  0  0  0  0  0  0  0  0
   -3.0965   28.3567  -14.8697 C   0  0  0  0  0  0  0  0  0  0  0  0
   -1.9449   28.4707  -14.3342 O   0  0  0  0  0  0  0  0  0  0  0  0
   -4.0373   27.5547  -14.5768 O   0  0  0  0  0  0  0  0  0  0  0  0
    1.5122   34.9962  -17.7921 H   0  0  0  0  0  0  0  0  0  0  0  0
    2.5340   35.7844  -18.8745 H   0  0  0  0  0  0  0  0  0  0  0  0
    1.4505   34.0204  -20.0185 H   0  0  0  0  0  0  0  0  0  0  0  0
   -0.9985   34.2908  -20.5332 H   0  0  0  0  0  0  0  0  0  0  0  0
   -1.0740   35.7530  -19.5658 H   0  0  0  0  0  0  0  0  0  0  0  0
   -2.0283   34.0294  -18.2314 H   0  0  0  0  0  0  0  0  0  0  0  0
   -0.4492   34.3067  -17.5246 H   0  0  0  0  0  0  0  0  0  0  0  0
   -0.4791   32.3037  -16.6140 H   0  0  0  0  0  0  0  0  0  0  0  0
    0.3334   30.1191  -18.4506 H   0  0  0  0  0  0  0  0  0  0  0  0
    0.5310   30.3288  -15.3758 H   0  0  0  0  0  0  0  0  0  0  0  0
    1.7950   30.8042  -16.4970 H   0  0  0  0  0  0  0  0  0  0  0  0
    2.4190   28.5080  -15.3839 H   0  0  0  0  0  0  0  0  0  0  0  0
   -1.9708   30.9149  -15.7769 H   0  0  0  0  0  0  0  0  0  0  0  0
   -3.9534   28.9768  -16.7794 H   0  0  0  0  0  0  0  0  0  0  0  0
   -4.1350   30.1524  -15.4613 H   0  0  0  0  0  0  0  0  0  0  0  0
    1.1469   36.5139  -18.4943 H   0  0  0  0  0  0  0  0  0  0  0  0
  1  2  1  0  0  0  0
  1 21  1  0  0  0  0
  1 22  1  0  0  0  0
  1 36  1  0  0  0  0
  2  3  1  0  0  0  0
  2  6  1  0  0  0  0
  2 23  1  6  0  0  0
  3  4  2  0  0  0  0
  3  5  1  0  0  0  0
  6  7  1  0  0  0  0
  6 24  1  0  0  0  0
  6 25  1  0  0  0  0
  7  8  1  0  0  0  0
  7 26  1  0  0  0  0
  7 27  1  0  0  0  0
  8  9  2  0  0  0  0
  8 10  1  0  0  0  0
 10 11  1  0  0  0  0
 10 28  1  0  0  0  0
 11 12  1  0  0  0  0
 11 14  1  0  0  0  0
 11 29  1  6  0  0  0
 12 13  2  0  0  0  0
 12 16  1  0  0  0  0
 14 15  1  0  0  0  0
 14 30  1  0  0  0  0
 14 31  1  0  0  0  0
 15 32  1  0  0  0  0
 16 17  1  0  0  0  0
 16 33  1  0  0  0  0
 17 18  1  0  0  0  0
 17 34  1  0  0  0  0
 17 35  1  0  0  0  0
 18 19  2  0  0  0  0
 18 20  1  0  0  0  0
M  CHG  1   1   1
M  END
$$$$
