GTC
 OpenBabel04091912483D

 26 27  0  0  1  0  0  0  0  0999 V2000
   21.1905    4.0855   11.3210 C   0  0  2  0  0  0  0  0  0  0  0  0
   23.6679    4.6118   11.5162 C   0  0  0  0  0  0  0  0  0  0  0  0
   21.1205    5.6210   11.2677 C   0  0  1  0  0  0  0  0  0  0  0  0
   22.0987    6.1358   10.2124 C   0  0  0  0  0  0  0  0  0  0  0  0
   18.5595    2.1179    9.9794 C   0  0  0  0  0  0  0  0  0  0  0  0
   19.1669    6.0164    9.9343 O   0  0  0  0  0  0  0  0  0  0  0  0
   19.6834    6.1563   11.0860 C   0  0  0  0  0  0  0  0  0  0  0  0
   19.2620    6.8120   12.0718 O   0  0  0  0  0  0  0  0  0  0  0  0
   23.5399    5.8749   10.6643 C   0  0  0  0  0  0  0  0  0  0  0  0
   22.6331    3.5722   11.1020 C   0  0  0  0  0  0  0  0  0  0  0  0
   20.2204    3.3679   10.3978 C   0  0  0  0  0  0  0  0  0  0  0  0
   20.2380    3.3188    9.0561 N   0  0  0  0  0  0  0  0  0  0  0  0
   19.1151    2.5938    8.7973 N   0  3  0  0  0  0  0  0  0  0  0  0
   19.2844    2.5599   10.9937 N   0  0  0  0  0  0  0  0  0  0  0  0
   17.2368    1.0863   10.0939 S   0  0  0  0  0  0  0  0  0  0  0  0
   20.9428    3.8159   12.3670 H   0  0  0  0  0  0  0  0  0  0  0  0
   23.5153    4.8685   12.5733 H   0  0  0  0  0  0  0  0  0  0  0  0
   24.6775    4.2007   11.4184 H   0  0  0  0  0  0  0  0  0  0  0  0
   21.4815    6.0194   12.2372 H   0  0  0  0  0  0  0  0  0  0  0  0
   21.9564    7.2046   10.0321 H   0  0  0  0  0  0  0  0  0  0  0  0
   21.9260    5.6196    9.2577 H   0  0  0  0  0  0  0  0  0  0  0  0
   24.1874    5.7847    9.7847 H   0  0  0  0  0  0  0  0  0  0  0  0
   23.8922    6.7328   11.2499 H   0  0  0  0  0  0  0  0  0  0  0  0
   22.7795    3.3374   10.0410 H   0  0  0  0  0  0  0  0  0  0  0  0
   22.7970    2.6456   11.6663 H   0  0  0  0  0  0  0  0  0  0  0  0
   18.8069    2.3923    7.8522 H   0  0  0  0  0  0  0  0  0  0  0  0
  1  3  1  0  0  0  0
  1 10  1  0  0  0  0
  1 11  1  0  0  0  0
  1 16  1  1  0  0  0
  2  9  1  0  0  0  0
  2 10  1  0  0  0  0
  2 17  1  0  0  0  0
  2 18  1  0  0  0  0
  3  4  1  0  0  0  0
  3  7  1  0  0  0  0
  3 19  1  1  0  0  0
  4  9  1  0  0  0  0
  4 20  1  0  0  0  0
  4 21  1  0  0  0  0
  5 13  2  0  0  0  0
  5 14  1  0  0  0  0
  5 15  1  0  0  0  0
  6  7  2  0  0  0  0
  7  8  1  0  0  0  0
  9 22  1  0  0  0  0
  9 23  1  0  0  0  0
 10 24  1  0  0  0  0
 10 25  1  0  0  0  0
 11 12  1  0  0  0  0
 11 14  2  0  0  0  0
 12 13  1  0  0  0  0
 13 26  1  0  0  0  0
M  CHG  1  13   1
M  END
$$$$
