GV9
 OpenBabel04091912493D

 18 18  0  0  0  0  0  0  0  0999 V2000
  -34.8318    5.4222   13.0913 O   0  0  0  0  0  0  0  0  0  0  0  0
  -35.1317    4.4106   13.7249 C   0  0  0  0  0  0  0  0  0  0  0  0
  -35.4228    3.1166   13.0057 C   0  0  0  0  0  0  0  0  0  0  0  0
  -35.2674    4.3038   15.0863 N   0  0  0  0  0  0  0  0  0  0  0  0
  -35.2813    5.3668   15.9745 C   0  0  0  0  0  0  0  0  0  0  0  0
  -35.5309    6.7406   15.6778 C   0  0  0  0  0  0  0  0  0  0  0  0
  -35.5371    7.5269   16.8084 C   0  0  0  0  0  0  0  0  0  0  0  0
  -35.2171    6.6165   18.2190 S   0  0  0  0  0  0  0  0  0  0  0  0
  -35.0767    5.1561   17.3341 C   0  0  0  0  0  0  0  0  0  0  0  0
  -34.7662    3.8273   17.9512 C   0  0  0  0  0  0  0  0  0  0  0  0
  -34.6286    2.8436   17.1447 O   0  0  0  0  0  0  0  0  0  0  0  0
  -34.6804    3.7626   19.2149 O   0  0  0  0  0  0  0  0  0  0  0  0
  -35.7129    2.3266   13.6936 H   0  0  0  0  0  0  0  0  0  0  0  0
  -34.5455    2.8077   12.4413 H   0  0  0  0  0  0  0  0  0  0  0  0
  -36.2647    3.3051   12.3196 H   0  0  0  0  0  0  0  0  0  0  0  0
  -35.1673    3.3856   15.5456 H   0  0  0  0  0  0  0  0  0  0  0  0
  -35.7371    7.1386   14.6908 H   0  0  0  0  0  0  0  0  0  0  0  0
  -35.7215    8.5907   16.8757 H   0  0  0  0  0  0  0  0  0  0  0  0
  1  2  2  0  0  0  0
  2  3  1  0  0  0  0
  2  4  1  0  0  0  0
  3 13  1  0  0  0  0
  3 14  1  0  0  0  0
  3 15  1  0  0  0  0
  4  5  1  0  0  0  0
  4 16  1  0  0  0  0
  5  6  1  0  0  0  0
  5  9  2  0  0  0  0
  6  7  2  0  0  0  0
  6 17  1  0  0  0  0
  7  8  1  0  0  0  0
  7 18  1  0  0  0  0
  8  9  1  0  0  0  0
  9 10  1  0  0  0  0
 10 11  2  0  0  0  0
 10 12  1  0  0  0  0
M  END
$$$$
