H0Y
 OpenBabel04091916443D

 47 51  0  0  0  0  0  0  0  0999 V2000
  -22.8427  -17.8755   10.7198 O   0  0  0  0  0  0  0  0  0  0  0  0
  -22.9448  -17.5912   11.9597 C   0  0  0  0  0  0  0  0  0  0  0  0
  -23.6251  -18.2805   12.8239 O   0  0  0  0  0  0  0  0  0  0  0  0
  -22.2413  -16.3387   12.4676 C   0  0  0  0  0  0  0  0  0  0  0  0
  -21.3013  -15.7487   11.6866 N   0  0  0  0  0  0  0  0  0  0  0  0
  -22.5725  -15.7905   13.7068 C   0  0  0  0  0  0  0  0  0  0  0  0
  -21.9491  -14.6310   14.1364 C   0  0  0  0  0  0  0  0  0  0  0  0
  -21.0042  -14.0335   13.3323 C   0  0  0  0  0  0  0  0  0  0  0  0
  -20.7031  -14.6313   12.1160 C   0  0  0  0  0  0  0  0  0  0  0  0
  -19.7017  -14.0691   11.2256 C   0  0  0  0  0  0  0  0  0  0  0  0
  -19.6904  -14.4210    9.8725 C   0  0  0  0  0  0  0  0  0  0  0  0
  -18.7169  -13.8987    9.0349 C   0  0  0  0  0  0  0  0  0  0  0  0
  -17.7410  -13.0276    9.5325 C   0  0  0  0  0  0  0  0  0  0  0  0
  -16.6918  -12.4735    8.6209 C   0  0  0  0  0  0  0  0  0  0  0  0
  -15.4089  -12.2318    9.3984 C   0  0  0  0  0  0  0  0  0  0  0  0
  -15.6767  -11.2034   10.4675 C   0  0  0  0  0  0  0  0  0  0  0  0
  -18.7303  -13.1885   11.7174 C   0  0  0  0  0  0  0  0  0  0  0  0
  -17.7549  -12.6647   10.8835 C   0  0  0  0  0  0  0  0  0  0  0  0
  -16.7136  -11.7472   11.4151 C   0  0  0  0  0  0  0  0  0  0  0  0
  -16.7524  -11.4044   12.6627 N   0  0  0  0  0  0  0  0  0  0  0  0
  -15.8268  -10.5299   13.0987 N   0  0  0  0  0  0  0  0  0  0  0  0
  -16.0965   -9.6869   14.1104 C   0  0  0  0  0  0  0  0  0  0  0  0
  -17.7115   -9.5240   14.6666 S   0  0  0  0  0  0  0  0  0  0  0  0
  -17.1529   -8.3949   15.7985 C   0  0  0  0  0  0  0  0  0  0  0  0
  -17.9368   -7.7360   16.7290 C   0  0  0  0  0  0  0  0  0  0  0  0
  -17.3213   -6.8391   17.5875 C   0  0  0  0  0  0  0  0  0  0  0  0
  -15.1883   -8.9373   14.6967 N   0  0  0  0  0  0  0  0  0  0  0  0
  -15.7811   -8.1942   15.6934 C   0  0  0  0  0  0  0  0  0  0  0  0
  -15.1654   -7.2812   16.5820 C   0  0  0  0  0  0  0  0  0  0  0  0
  -15.9534   -6.6076   17.5242 C   0  0  0  0  0  0  0  0  0  0  0  0
  -23.3250  -16.2687   14.3235 H   0  0  0  0  0  0  0  0  0  0  0  0
  -22.1938  -14.1805   15.0886 H   0  0  0  0  0  0  0  0  0  0  0  0
  -20.5079  -13.1385   13.6473 H   0  0  0  0  0  0  0  0  0  0  0  0
  -20.4461  -15.1144    9.4908 H   0  0  0  0  0  0  0  0  0  0  0  0
  -18.7160  -14.1926    7.9917 H   0  0  0  0  0  0  0  0  0  0  0  0
  -17.0485  -11.5279    8.1920 H   0  0  0  0  0  0  0  0  0  0  0  0
  -16.4922  -13.1763    7.8108 H   0  0  0  0  0  0  0  0  0  0  0  0
  -14.6210  -11.8698    8.7349 H   0  0  0  0  0  0  0  0  0  0  0  0
  -15.0727  -13.1670    9.8679 H   0  0  0  0  0  0  0  0  0  0  0  0
  -16.0379  -10.2579   10.0483 H   0  0  0  0  0  0  0  0  0  0  0  0
  -14.7452  -11.0040   10.9995 H   0  0  0  0  0  0  0  0  0  0  0  0
  -18.7246  -12.9259   12.7713 H   0  0  0  0  0  0  0  0  0  0  0  0
  -14.8763  -10.4959   12.7401 H   0  0  0  0  0  0  0  0  0  0  0  0
  -18.9955   -7.9416   16.7560 H   0  0  0  0  0  0  0  0  0  0  0  0
  -17.9391   -6.3242   18.3125 H   0  0  0  0  0  0  0  0  0  0  0  0
  -14.0950   -7.0942   16.5474 H   0  0  0  0  0  0  0  0  0  0  0  0
  -15.5009   -5.8992   18.2128 H   0  0  0  0  0  0  0  0  0  0  0  0
  1  2  2  0  0  0  0
  2  3  1  0  0  0  0
  2  4  1  0  0  0  0
  4  5  2  0  0  0  0
  4  6  1  0  0  0  0
  5  9  1  0  0  0  0
  6  7  2  0  0  0  0
  6 31  1  0  0  0  0
  7  8  1  0  0  0  0
  7 32  1  0  0  0  0
  8  9  2  0  0  0  0
  8 33  1  0  0  0  0
  9 10  1  0  0  0  0
 10 11  2  0  0  0  0
 10 17  1  0  0  0  0
 11 12  1  0  0  0  0
 11 34  1  0  0  0  0
 12 13  2  0  0  0  0
 12 35  1  0  0  0  0
 13 14  1  0  0  0  0
 13 18  1  0  0  0  0
 14 15  1  0  0  0  0
 14 36  1  0  0  0  0
 14 37  1  0  0  0  0
 15 16  1  0  0  0  0
 15 38  1  0  0  0  0
 15 39  1  0  0  0  0
 16 19  1  0  0  0  0
 16 40  1  0  0  0  0
 16 41  1  0  0  0  0
 17 18  2  0  0  0  0
 17 42  1  0  0  0  0
 18 19  1  0  0  0  0
 19 20  2  0  0  0  0
 20 21  1  0  0  0  0
 21 22  1  0  0  0  0
 21 43  1  0  0  0  0
 22 23  1  0  0  0  0
 22 27  2  0  0  0  0
 23 24  1  0  0  0  0
 24 25  2  0  0  0  0
 24 28  1  0  0  0  0
 25 26  1  0  0  0  0
 25 44  1  0  0  0  0
 26 30  2  0  0  0  0
 26 45  1  0  0  0  0
 27 28  1  0  0  0  0
 28 29  2  0  0  0  0
 29 30  1  0  0  0  0
 29 46  1  0  0  0  0
 30 47  1  0  0  0  0
M  END
$$$$
