HHG
 OpenBabel04091911363D

 34 33  0  0  1  0  0  0  0  0999 V2000
    4.1242   23.2805   33.3539 O   0  0  0  0  0  0  0  0  0  0  0  0
    3.7806   24.6743   32.8303 P   0  0  0  0  0  0  0  0  0  0  0  0
    4.2129   25.8184   33.7298 O   0  0  0  0  0  0  0  0  0  0  0  0
    2.3633   24.8065   32.2804 O   0  0  0  0  0  0  0  0  0  0  0  0
    4.7222   24.8136   31.4805 O   0  0  0  0  0  0  0  0  0  0  0  0
    6.1006   25.0632   31.6449 C   0  0  0  0  0  0  0  0  0  0  0  0
    6.7496   25.2056   30.2429 C   0  0  1  0  0  0  0  0  0  0  0  0
    5.9381   25.9956   29.3530 O   0  0  0  0  0  0  0  0  0  0  0  0
    8.1556   25.8542   30.3641 C   0  0  0  0  0  0  0  0  0  0  0  0
    8.7996   26.0077   29.0442 O   0  0  0  0  0  0  0  0  0  0  0  0
   10.0419   25.4631   28.8082 C   0  0  0  0  0  0  0  0  0  0  0  0
   10.6550   24.8730   29.6789 O   0  0  0  0  0  0  0  0  0  0  0  0
   10.5571   25.6978   27.4115 C   0  0  0  0  0  0  0  0  0  0  0  0
   11.9550   25.0859   27.1949 C   0  0  0  0  0  0  0  0  0  0  0  0
   13.0407   26.1704   27.1582 C   0  0  0  0  0  0  0  0  0  0  0  0
   14.0957   25.8883   26.0907 C   0  0  0  0  0  0  0  0  0  0  0  0
   15.3681   25.2972   26.6506 C   0  0  0  0  0  0  0  0  0  0  0  0
    6.6054   24.2435   32.1773 H   0  0  0  0  0  0  0  0  0  0  0  0
    6.2662   25.9953   32.2001 H   0  0  0  0  0  0  0  0  0  0  0  0
    6.8642   24.2212   29.7755 H   0  0  0  0  0  0  0  0  0  0  0  0
    5.0361   25.5545   29.3803 H   0  0  0  0  0  0  0  0  0  0  0  0
    8.7676   25.2541   31.0387 H   0  0  0  0  0  0  0  0  0  0  0  0
    8.0330   26.8548   30.8069 H   0  0  0  0  0  0  0  0  0  0  0  0
   10.6022   26.7725   27.2150 H   0  0  0  0  0  0  0  0  0  0  0  0
    9.8791   25.2345   26.6860 H   0  0  0  0  0  0  0  0  0  0  0  0
   11.9652   24.5269   26.2458 H   0  0  0  0  0  0  0  0  0  0  0  0
   12.2168   24.3631   27.9744 H   0  0  0  0  0  0  0  0  0  0  0  0
   13.5019   26.2581   28.1486 H   0  0  0  0  0  0  0  0  0  0  0  0
   12.5817   27.1362   26.9235 H   0  0  0  0  0  0  0  0  0  0  0  0
   14.3392   26.8264   25.5837 H   0  0  0  0  0  0  0  0  0  0  0  0
   13.6945   25.2001   25.3402 H   0  0  0  0  0  0  0  0  0  0  0  0
   16.0785   25.1204   25.8363 H   0  0  0  0  0  0  0  0  0  0  0  0
   15.1688   24.3455   27.1489 H   0  0  0  0  0  0  0  0  0  0  0  0
   15.8304   25.9820   27.3659 H   0  0  0  0  0  0  0  0  0  0  0  0
  1  2  2  0  0  0  0
  2  3  1  0  0  0  0
  2  4  1  0  0  0  0
  2  5  1  0  0  0  0
  5  6  1  0  0  0  0
  6  7  1  0  0  0  0
  6 18  1  0  0  0  0
  6 19  1  0  0  0  0
  7  8  1  0  0  0  0
  7  9  1  0  0  0  0
  7 20  1  6  0  0  0
  8 21  1  0  0  0  0
  9 10  1  0  0  0  0
  9 22  1  0  0  0  0
  9 23  1  0  0  0  0
 10 11  1  0  0  0  0
 11 12  2  0  0  0  0
 11 13  1  0  0  0  0
 13 14  1  0  0  0  0
 13 24  1  0  0  0  0
 13 25  1  0  0  0  0
 14 15  1  0  0  0  0
 14 26  1  0  0  0  0
 14 27  1  0  0  0  0
 15 16  1  0  0  0  0
 15 28  1  0  0  0  0
 15 29  1  0  0  0  0
 16 17  1  0  0  0  0
 16 30  1  0  0  0  0
 16 31  1  0  0  0  0
 17 32  1  0  0  0  0
 17 33  1  0  0  0  0
 17 34  1  0  0  0  0
M  END
$$$$
