HN2
 OpenBabel04091911423D

 43 45  0  0  1  0  0  0  0  0999 V2000
   26.7095   64.9180    8.3067 O   0  0  0  0  0  0  0  0  0  0  0  0
   27.0740   65.9645    8.8310 C   0  0  0  0  0  0  0  0  0  0  0  0
   26.0802   66.8055    9.5719 C   0  0  0  0  0  0  0  0  0  0  0  0
   24.7406   66.3968    9.6055 C   0  0  0  0  0  0  0  0  0  0  0  0
   23.7924   67.1489   10.2977 C   0  0  0  0  0  0  0  0  0  0  0  0
   24.1805   68.3118   10.9587 C   0  0  0  0  0  0  0  0  0  0  0  0
   25.5091   68.7209   10.9363 C   0  0  0  0  0  0  0  0  0  0  0  0
   26.4575   67.9653   10.2327 C   0  0  0  0  0  0  0  0  0  0  0  0
   28.5097   66.4306    8.7493 C   0  0  0  0  0  0  0  0  0  0  0  0
   29.3965   65.3573    8.1091 C   0  0  1  0  0  0  0  0  0  0  0  0
   29.2399   65.2373    6.5838 C   0  0  0  0  0  0  0  0  0  0  0  0
   29.7647   66.4585    5.8215 C   0  0  0  0  0  0  0  0  0  0  0  0
   31.2365   66.7408    6.1290 C   0  0  1  0  0  0  0  0  0  0  0  0
   31.5971   67.9750    5.5246 O   0  0  0  0  0  0  0  0  0  0  0  0
   31.4333   66.8466    7.6418 C   0  0  2  0  0  0  0  0  0  0  0  0
   32.8850   66.8924    8.1301 C   0  0  2  0  0  0  0  0  0  0  0  0
   33.7453   66.1178    7.2913 O   0  0  0  0  0  0  0  0  0  0  0  0
   30.8770   65.6342    8.3513 N   0  3  1  0  0  0  0  0  0  0  0  0
   31.3935   65.7982    9.7641 C   0  0  0  0  0  0  0  0  0  0  0  0
   32.8237   66.3357    9.5674 C   0  0  1  0  0  0  0  0  0  0  0  0
   33.7493   65.2593    9.7084 O   0  0  0  0  0  0  0  0  0  0  0  0
   24.4189   65.4889    9.0898 H   0  0  0  0  0  0  0  0  0  0  0  0
   22.7523   66.8381   10.3173 H   0  0  0  0  0  0  0  0  0  0  0  0
   23.4390   68.8987   11.5050 H   0  0  0  0  0  0  0  0  0  0  0  0
   25.8035   69.6353   11.4513 H   0  0  0  0  0  0  0  0  0  0  0  0
   27.4803   68.3351   10.2435 H   0  0  0  0  0  0  0  0  0  0  0  0
   28.8188   66.6170    9.7750 H   0  0  0  0  0  0  0  0  0  0  0  0
   28.5374   67.3676    8.1901 H   0  0  0  0  0  0  0  0  0  0  0  0
   29.2161   64.3792    8.5789 H   0  0  0  0  0  0  0  0  0  0  0  0
   28.1920   65.0724    6.3148 H   0  0  0  0  0  0  0  0  0  0  0  0
   29.7839   64.3470    6.2383 H   0  0  0  0  0  0  0  0  0  0  0  0
   29.1652   67.3434    6.0646 H   0  0  0  0  0  0  0  0  0  0  0  0
   29.6337   66.3114    4.7422 H   0  0  0  0  0  0  0  0  0  0  0  0
   31.8481   65.9398    5.6887 H   0  0  0  0  0  0  0  0  0  0  0  0
   32.5664   68.0872    5.5820 H   0  0  0  0  0  0  0  0  0  0  0  0
   30.9020   67.7230    8.0381 H   0  0  0  0  0  0  0  0  0  0  0  0
   33.2627   67.9205    8.1182 H   0  0  0  0  0  0  0  0  0  0  0  0
   33.6466   65.1661    7.4895 H   0  0  0  0  0  0  0  0  0  0  0  0
   31.3327   64.8292   10.2652 H   0  0  0  0  0  0  0  0  0  0  0  0
   30.7814   66.5494   10.2675 H   0  0  0  0  0  0  0  0  0  0  0  0
   33.0376   67.1039   10.3173 H   0  0  0  0  0  0  0  0  0  0  0  0
   34.6488   65.6342    9.6102 H   0  0  0  0  0  0  0  0  0  0  0  0
   31.3693   64.8015    7.9875 H   0  0  0  0  0  0  0  0  0  0  0  0
  1  2  2  0  0  0  0
  2  3  1  0  0  0  0
  2  9  1  0  0  0  0
  3  4  2  0  0  0  0
  3  8  1  0  0  0  0
  4  5  1  0  0  0  0
  4 22  1  0  0  0  0
  5  6  2  0  0  0  0
  5 23  1  0  0  0  0
  6  7  1  0  0  0  0
  6 24  1  0  0  0  0
  7  8  2  0  0  0  0
  7 25  1  0  0  0  0
  8 26  1  0  0  0  0
  9 10  1  0  0  0  0
  9 27  1  0  0  0  0
  9 28  1  0  0  0  0
 10 11  1  0  0  0  0
 10 18  1  0  0  0  0
 10 29  1  1  0  0  0
 11 12  1  0  0  0  0
 11 30  1  0  0  0  0
 11 31  1  0  0  0  0
 12 13  1  0  0  0  0
 12 32  1  0  0  0  0
 12 33  1  0  0  0  0
 13 14  1  0  0  0  0
 13 15  1  0  0  0  0
 13 34  1  6  0  0  0
 14 35  1  0  0  0  0
 15 16  1  0  0  0  0
 15 18  1  0  0  0  0
 15 36  1  1  0  0  0
 16 17  1  0  0  0  0
 16 20  1  0  0  0  0
 16 37  1  1  0  0  0
 17 38  1  0  0  0  0
 18 19  1  0  0  0  0
 18 43  1  6  0  0  0
 19 20  1  0  0  0  0
 19 39  1  0  0  0  0
 19 40  1  0  0  0  0
 20 21  1  0  0  0  0
 20 41  1  1  0  0  0
 21 42  1  0  0  0  0
M  CHG  1  18   1
M  END
$$$$
