HNQ
 OpenBabel04091910523D

 19 20  0  0  0  0  0  0  0  0999 V2000
  -35.2532  -12.1524  -47.0994 C   0  0  0  0  0  0  0  0  0  0  0  0
  -35.9476  -13.3217  -47.5275 N   0  0  0  0  0  0  0  0  0  0  0  0
  -35.6549  -14.3875  -46.9781 O   0  0  0  0  0  0  0  0  0  0  0  0
  -34.5000  -11.5394  -48.0547 C   0  0  0  0  0  0  0  0  0  0  0  0
  -34.6809  -10.1727  -44.1786 N   0  0  0  0  0  0  0  0  0  0  0  0
  -36.7963  -13.1530  -48.4037 O   0  0  0  0  0  0  0  0  0  0  0  0
  -33.7617  -10.4562  -47.6623 C   0  0  0  0  0  0  0  0  0  0  0  0
  -33.0650   -8.9161  -46.0621 O   0  0  0  0  0  0  0  0  0  0  0  0
  -33.7784   -9.9367  -46.3545 C   0  0  0  0  0  0  0  0  0  0  0  0
  -34.6137  -10.6076  -45.4348 C   0  0  0  0  0  0  0  0  0  0  0  0
  -35.4879  -10.8191  -43.3649 C   0  0  0  0  0  0  0  0  0  0  0  0
  -36.2717  -11.8831  -43.6689 C   0  0  0  0  0  0  0  0  0  0  0  0
  -36.2230  -12.3621  -44.9467 C   0  0  0  0  0  0  0  0  0  0  0  0
  -35.3502  -11.7228  -45.8161 C   0  0  0  0  0  0  0  0  0  0  0  0
  -34.4979  -11.9300  -49.0666 H   0  0  0  0  0  0  0  0  0  0  0  0
  -33.1258   -9.9819  -48.3970 H   0  0  0  0  0  0  0  0  0  0  0  0
  -35.5027  -10.4211  -42.3536 H   0  0  0  0  0  0  0  0  0  0  0  0
  -36.9112  -12.3727  -42.9840 H   0  0  0  0  0  0  0  0  0  0  0  0
  -36.8147  -13.2067  -45.2294 H   0  0  0  0  0  0  0  0  0  0  0  0
  1  2  1  0  0  0  0
  1  4  2  0  0  0  0
  1 14  1  0  0  0  0
  2  3  2  0  0  0  0
  2  6  2  0  0  0  0
  4  7  1  0  0  0  0
  4 15  1  0  0  0  0
  5 10  2  0  0  0  0
  5 11  1  0  0  0  0
  7  9  2  0  0  0  0
  7 16  1  0  0  0  0
  8  9  1  0  0  0  0
  9 10  1  0  0  0  0
 10 14  1  0  0  0  0
 11 12  2  0  0  0  0
 11 17  1  0  0  0  0
 12 13  1  0  0  0  0
 12 18  1  0  0  0  0
 13 14  2  0  0  0  0
 13 19  1  0  0  0  0
M  END
$$$$
