HRD
 OpenBabel04091915033D

 30 32  0  0  0  0  0  0  0  0999 V2000
   17.4506   17.6075   17.4064 N   0  3  0  0  0  0  0  0  0  0  0  0
   19.5016   17.9577   18.1573 N   0  0  0  0  0  0  0  0  0  0  0  0
   18.7505   17.8982   17.0873 C   0  0  0  0  0  0  0  0  0  0  0  0
   18.3016   18.0281   14.6773 C   0  0  0  0  0  0  0  0  0  0  0  0
   18.6642   17.6975   19.2092 C   0  0  0  0  0  0  0  0  0  0  0  0
   18.9481   17.6379   20.5745 C   0  0  0  0  0  0  0  0  0  0  0  0
   17.8896   17.3511   21.4388 C   0  0  0  0  0  0  0  0  0  0  0  0
   15.7772   16.7799   23.1321 C   0  0  0  0  0  0  0  0  0  0  0  0
   16.5855   17.1237   20.9824 C   0  0  0  0  0  0  0  0  0  0  0  0
   16.2999   17.1855   19.6145 C   0  0  0  0  0  0  0  0  0  0  0  0
   17.3651   17.4725   18.7650 C   0  0  0  0  0  0  0  0  0  0  0  0
   19.1597   18.0867   15.8262 N   0  0  0  0  0  0  0  0  0  0  0  0
   18.1174   17.2813   22.8878 C   0  0  0  0  0  0  0  0  0  0  0  0
   19.2224   17.4706   23.3890 O   0  0  0  0  0  0  0  0  0  0  0  0
   17.0181   16.9925   23.6483 N   0  3  0  0  0  0  0  0  0  0  0  0
   14.7922   16.5040   24.0268 N   0  0  0  0  0  0  0  0  0  0  0  0
   13.4402   16.2881   23.5879 C   0  0  0  0  0  0  0  0  0  0  0  0
   15.5362   16.8353   21.8597 N   0  0  0  0  0  0  0  0  0  0  0  0
   16.6928   17.5106   16.7508 H   0  0  0  0  0  0  0  0  0  0  0  0
   18.8773   18.2234   13.7684 H   0  0  0  0  0  0  0  0  0  0  0  0
   17.5070   18.7786   14.7449 H   0  0  0  0  0  0  0  0  0  0  0  0
   17.8476   17.0357   14.5859 H   0  0  0  0  0  0  0  0  0  0  0  0
   19.9540   17.8088   20.9421 H   0  0  0  0  0  0  0  0  0  0  0  0
   15.2972   17.0108   19.2371 H   0  0  0  0  0  0  0  0  0  0  0  0
   20.1417   18.3064   15.6830 H   0  0  0  0  0  0  0  0  0  0  0  0
   17.1743   16.9492   24.6421 H   0  0  0  0  0  0  0  0  0  0  0  0
   14.9850   16.4575   25.0169 H   0  0  0  0  0  0  0  0  0  0  0  0
   12.7827   16.0868   24.4354 H   0  0  0  0  0  0  0  0  0  0  0  0
   13.3993   15.4336   22.9031 H   0  0  0  0  0  0  0  0  0  0  0  0
   13.0699   17.1758   23.0623 H   0  0  0  0  0  0  0  0  0  0  0  0
  1  3  2  0  0  0  0
  1 11  1  0  0  0  0
  1 19  1  0  0  0  0
  2  3  1  0  0  0  0
  2  5  1  0  0  0  0
  3 12  1  0  0  0  0
  4 12  1  0  0  0  0
  4 20  1  0  0  0  0
  4 21  1  0  0  0  0
  4 22  1  0  0  0  0
  5  6  2  0  0  0  0
  5 11  1  0  0  0  0
  6  7  1  0  0  0  0
  6 23  1  0  0  0  0
  7  9  2  0  0  0  0
  7 13  1  0  0  0  0
  8 15  1  0  0  0  0
  8 16  1  0  0  0  0
  8 18  2  0  0  0  0
  9 10  1  0  0  0  0
  9 18  1  0  0  0  0
 10 11  2  0  0  0  0
 10 24  1  0  0  0  0
 12 25  1  0  0  0  0
 13 14  2  0  0  0  0
 13 15  1  0  0  0  0
 15 26  1  0  0  0  0
 16 17  1  0  0  0  0
 16 27  1  0  0  0  0
 17 28  1  0  0  0  0
 17 29  1  0  0  0  0
 17 30  1  0  0  0  0
M  CHG  2   1   1  15   1
M  END
$$$$
