HS1
 OpenBabel04091911473D

 40 40  0  0  1  0  0  0  0  0999 V2000
   -1.7257   -5.2447   -3.7163 N   0  0  0  0  0  0  0  0  0  0  0  0
   -4.9521   -6.6733   -7.0174 C   0  0  0  0  0  0  0  0  0  0  0  0
   -1.5726   -2.0431   -5.2550 N   0  0  0  0  0  0  0  0  0  0  0  0
   -4.7681   -5.8551   -8.1346 C   0  0  0  0  0  0  0  0  0  0  0  0
   -2.6189   -5.1407   -7.2557 C   0  0  0  0  0  0  0  0  0  0  0  0
   -1.6161   -5.9945   -1.3351 C   0  0  2  0  0  0  0  0  0  0  0  0
   -1.5744   -7.6243   -4.6178 O   0  0  0  0  0  0  0  0  0  0  0  0
   -0.2667   -5.7659   -5.6940 O   0  0  0  0  0  0  0  0  0  0  0  0
   -5.6508   -5.7127   -9.1694 O   0  0  0  0  0  0  0  0  0  0  0  0
   -1.4290   -8.3688   -1.8349 O   0  0  0  0  0  0  0  0  0  0  0  0
   -3.2921   -2.8250   -3.9332 O   0  0  0  0  0  0  0  0  0  0  0  0
   -2.1306   -2.8843   -4.3118 C   0  0  0  0  0  0  0  0  0  0  0  0
   -2.4788   -1.1195   -5.8151 O   0  0  0  0  0  0  0  0  0  0  0  0
   -1.1609   -3.8884   -3.7311 C   0  0  0  0  0  0  0  0  0  0  0  0
   -2.5194   -5.6850   -2.5546 C   0  0  0  0  0  0  0  0  0  0  0  0
   -0.8471   -4.8673   -0.9054 O   0  0  0  0  0  0  0  0  0  0  0  0
   -0.6846   -7.1762   -1.6168 C   0  0  0  0  0  0  0  0  0  0  0  0
   -1.4614   -6.2467   -5.0254 S   0  0  0  0  0  0  0  0  0  0  0  0
   -2.8133   -5.9596   -6.1441 C   0  0  0  0  0  0  0  0  0  0  0  0
   -3.6057   -5.0808   -8.2383 C   0  0  0  0  0  0  0  0  0  0  0  0
   -6.6210   -6.7410   -9.3349 C   0  0  0  0  0  0  0  0  0  0  0  0
   -3.9734   -6.7305   -6.0219 C   0  0  0  0  0  0  0  0  0  0  0  0
   -5.8395   -7.2835   -6.8926 H   0  0  0  0  0  0  0  0  0  0  0  0
   -0.6510   -2.1432   -5.6554 H   0  0  0  0  0  0  0  0  0  0  0  0
   -1.6954   -4.5847   -7.3852 H   0  0  0  0  0  0  0  0  0  0  0  0
   -2.2650   -6.2623   -0.4961 H   0  0  0  0  0  0  0  0  0  0  0  0
   -2.0051   -8.5179   -1.0697 H   0  0  0  0  0  0  0  0  0  0  0  0
   -2.0080   -0.7434   -6.5779 H   0  0  0  0  0  0  0  0  0  0  0  0
   -0.2110   -3.8776   -4.2610 H   0  0  0  0  0  0  0  0  0  0  0  0
   -0.9135   -3.5267   -2.7314 H   0  0  0  0  0  0  0  0  0  0  0  0
   -3.0939   -6.5852   -2.8065 H   0  0  0  0  0  0  0  0  0  0  0  0
   -3.2677   -4.9299   -2.2743 H   0  0  0  0  0  0  0  0  0  0  0  0
   -1.4702   -4.1486   -0.6990 H   0  0  0  0  0  0  0  0  0  0  0  0
   -0.0031   -7.3451   -0.7786 H   0  0  0  0  0  0  0  0  0  0  0  0
   -0.0495   -6.9799   -2.4882 H   0  0  0  0  0  0  0  0  0  0  0  0
   -3.4528   -4.4495   -9.1109 H   0  0  0  0  0  0  0  0  0  0  0  0
   -7.2554   -6.4637  -10.1825 H   0  0  0  0  0  0  0  0  0  0  0  0
   -7.2749   -6.8381   -8.4628 H   0  0  0  0  0  0  0  0  0  0  0  0
   -6.1386   -7.6948   -9.5733 H   0  0  0  0  0  0  0  0  0  0  0  0
   -4.1036   -7.4037   -5.1776 H   0  0  0  0  0  0  0  0  0  0  0  0
  1 14  1  0  0  0  0
  1 15  1  0  0  0  0
  1 18  1  0  0  0  0
  2  4  2  0  0  0  0
  2 22  1  0  0  0  0
  2 23  1  0  0  0  0
  3 12  1  0  0  0  0
  3 13  1  0  0  0  0
  3 24  1  0  0  0  0
  4  9  1  0  0  0  0
  4 20  1  0  0  0  0
  5 19  1  0  0  0  0
  5 20  2  0  0  0  0
  5 25  1  0  0  0  0
  6 15  1  0  0  0  0
  6 16  1  0  0  0  0
  6 17  1  0  0  0  0
  6 26  1  1  0  0  0
  7 18  2  0  0  0  0
  8 18  2  0  0  0  0
  9 21  1  0  0  0  0
 10 17  1  0  0  0  0
 10 27  1  0  0  0  0
 11 12  2  0  0  0  0
 12 14  1  0  0  0  0
 13 28  1  0  0  0  0
 14 29  1  0  0  0  0
 14 30  1  0  0  0  0
 15 31  1  0  0  0  0
 15 32  1  0  0  0  0
 16 33  1  0  0  0  0
 17 34  1  0  0  0  0
 17 35  1  0  0  0  0
 18 19  1  0  0  0  0
 19 22  2  0  0  0  0
 20 36  1  0  0  0  0
 21 37  1  0  0  0  0
 21 38  1  0  0  0  0
 21 39  1  0  0  0  0
 22 40  1  0  0  0  0
M  END
$$$$
