HS4
 OpenBabel04091911473D

 33 34  0  0  0  0  0  0  0  0999 V2000
   -0.4790   -5.3845    5.1664 O   0  0  0  0  0  0  0  0  0  0  0  0
    0.5809   -5.9054    4.3047 S   0  0  0  0  0  0  0  0  0  0  0  0
    0.4318   -7.1406    3.5794 O   0  0  0  0  0  0  0  0  0  0  0  0
    0.8139   -4.7172    3.1769 N   0  0  0  0  0  0  0  0  0  0  0  0
    0.5162   -3.3074    3.4793 C   0  0  0  0  0  0  0  0  0  0  0  0
    1.6702   -2.6767    4.1919 C   0  0  0  0  0  0  0  0  0  0  0  0
    2.8109   -2.6887    3.7578 O   0  0  0  0  0  0  0  0  0  0  0  0
    1.3646   -2.0649    5.4105 N   0  0  0  0  0  0  0  0  0  0  0  0
    2.3030   -1.5190    5.9867 O   0  0  0  0  0  0  0  0  0  0  0  0
    1.9559   -6.0164    5.3728 C   0  0  0  0  0  0  0  0  0  0  0  0
    2.9944   -6.8257    4.9732 C   0  0  0  0  0  0  0  0  0  0  0  0
    4.0534   -7.0223    5.8288 C   0  0  0  0  0  0  0  0  0  0  0  0
    1.9103   -5.4453    6.6550 C   0  0  0  0  0  0  0  0  0  0  0  0
    2.9816   -5.6555    7.4986 C   0  0  0  0  0  0  0  0  0  0  0  0
    4.0771   -6.4438    7.0984 C   0  0  0  0  0  0  0  0  0  0  0  0
    5.1849   -6.7327    8.0106 C   0  0  0  0  0  0  0  0  0  0  0  0
    6.5278   -6.7721    7.6011 C   0  0  0  0  0  0  0  0  0  0  0  0
    7.5413   -7.0937    8.5092 C   0  0  0  0  0  0  0  0  0  0  0  0
    7.2245   -7.3939    9.8313 C   0  0  0  0  0  0  0  0  0  0  0  0
    5.8989   -7.3781   10.2454 C   0  0  0  0  0  0  0  0  0  0  0  0
    4.8945   -7.0538    9.3405 C   0  0  0  0  0  0  0  0  0  0  0  0
    1.0034   -4.9949    2.2263 H   0  0  0  0  0  0  0  0  0  0  0  0
   -0.4012   -3.2224    4.0593 H   0  0  0  0  0  0  0  0  0  0  0  0
    0.3571   -2.8089    2.5133 H   0  0  0  0  0  0  0  0  0  0  0  0
    2.9724   -7.2719    3.9913 H   0  0  0  0  0  0  0  0  0  0  0  0
    4.8593   -7.6656    5.5014 H   0  0  0  0  0  0  0  0  0  0  0  0
    1.0649   -4.8304    6.9820 H   0  0  0  0  0  0  0  0  0  0  0  0
    2.9660   -5.2158    8.4925 H   0  0  0  0  0  0  0  0  0  0  0  0
    6.7931   -6.5602    6.5668 H   0  0  0  0  0  0  0  0  0  0  0  0
    8.5785   -7.1098    8.1880 H   0  0  0  0  0  0  0  0  0  0  0  0
    8.0084   -7.6448   10.5393 H   0  0  0  0  0  0  0  0  0  0  0  0
    5.6385   -7.6150   11.2712 H   0  0  0  0  0  0  0  0  0  0  0  0
    3.8582   -7.0734    9.6656 H   0  0  0  0  0  0  0  0  0  0  0  0
  1  2  2  0  0  0  0
  2  3  2  0  0  0  0
  2  4  1  0  0  0  0
  2 10  1  0  0  0  0
  4  5  1  0  0  0  0
  4 22  1  0  0  0  0
  5  6  1  0  0  0  0
  5 23  1  0  0  0  0
  5 24  1  0  0  0  0
  6  7  2  0  0  0  0
  6  8  1  0  0  0  0
  8  9  2  0  0  0  0
 10 11  2  0  0  0  0
 10 13  1  0  0  0  0
 11 12  1  0  0  0  0
 11 25  1  0  0  0  0
 12 15  2  0  0  0  0
 12 26  1  0  0  0  0
 13 14  2  0  0  0  0
 13 27  1  0  0  0  0
 14 15  1  0  0  0  0
 14 28  1  0  0  0  0
 15 16  1  0  0  0  0
 16 17  2  0  0  0  0
 16 21  1  0  0  0  0
 17 18  1  0  0  0  0
 17 29  1  0  0  0  0
 18 19  2  0  0  0  0
 18 30  1  0  0  0  0
 19 20  1  0  0  0  0
 19 31  1  0  0  0  0
 20 21  2  0  0  0  0
 20 32  1  0  0  0  0
 21 33  1  0  0  0  0
M  END
$$$$
