HS6
 OpenBabel04091911483D

 25 25  0  0  0  0  0  0  0  0999 V2000
  -12.9887   -7.6681  -20.0813 O   0  0  0  0  0  0  0  0  0  0  0  0
  -13.0639   -6.3226  -19.5549 S   0  0  0  0  0  0  0  0  0  0  0  0
  -14.2407   -5.8550  -18.8464 O   0  0  0  0  0  0  0  0  0  0  0  0
  -12.8049   -5.3008  -20.8330 N   0  0  0  0  0  0  0  0  0  0  0  0
  -13.3159   -3.9345  -20.8252 C   0  0  0  0  0  0  0  0  0  0  0  0
  -12.3273   -2.9667  -20.2125 C   0  0  0  0  0  0  0  0  0  0  0  0
  -11.1715   -2.8854  -20.6272 O   0  0  0  0  0  0  0  0  0  0  0  0
  -12.8458   -2.2304  -19.1723 N   0  0  0  0  0  0  0  0  0  0  0  0
  -11.9557   -1.3327  -18.5509 O   0  0  0  0  0  0  0  0  0  0  0  0
  -11.6633   -6.0952  -18.4862 C   0  0  0  0  0  0  0  0  0  0  0  0
  -10.4996   -6.8413  -18.7206 C   0  0  0  0  0  0  0  0  0  0  0  0
  -11.7842   -5.3157  -17.3299 C   0  0  0  0  0  0  0  0  0  0  0  0
  -10.7273   -5.2642  -16.4196 C   0  0  0  0  0  0  0  0  0  0  0  0
   -9.5696   -5.9978  -16.6647 C   0  0  0  0  0  0  0  0  0  0  0  0
   -8.5656   -5.9587  -15.7791 F   0  0  0  0  0  0  0  0  0  0  0  0
   -9.4468   -6.7861  -17.8045 C   0  0  0  0  0  0  0  0  0  0  0  0
  -12.2184   -5.6179  -21.6034 H   0  0  0  0  0  0  0  0  0  0  0  0
  -14.2834   -3.8849  -20.3168 H   0  0  0  0  0  0  0  0  0  0  0  0
  -13.5049   -3.6235  -21.8590 H   0  0  0  0  0  0  0  0  0  0  0  0
  -13.7973   -2.3071  -18.8259 H   0  0  0  0  0  0  0  0  0  0  0  0
  -12.4803   -0.9296  -17.8380 H   0  0  0  0  0  0  0  0  0  0  0  0
  -10.4179   -7.4878  -19.5921 H   0  0  0  0  0  0  0  0  0  0  0  0
  -12.7004   -4.7714  -17.1166 H   0  0  0  0  0  0  0  0  0  0  0  0
  -10.8036   -4.6722  -15.5126 H   0  0  0  0  0  0  0  0  0  0  0  0
   -8.5409   -7.3639  -17.9629 H   0  0  0  0  0  0  0  0  0  0  0  0
  1  2  2  0  0  0  0
  2  3  2  0  0  0  0
  2  4  1  0  0  0  0
  2 10  1  0  0  0  0
  4  5  1  0  0  0  0
  4 17  1  0  0  0  0
  5  6  1  0  0  0  0
  5 18  1  0  0  0  0
  5 19  1  0  0  0  0
  6  7  2  0  0  0  0
  6  8  1  0  0  0  0
  8  9  1  0  0  0  0
  8 20  1  0  0  0  0
  9 21  1  0  0  0  0
 10 11  2  0  0  0  0
 10 12  1  0  0  0  0
 11 16  1  0  0  0  0
 11 22  1  0  0  0  0
 12 13  2  0  0  0  0
 12 23  1  0  0  0  0
 13 14  1  0  0  0  0
 13 24  1  0  0  0  0
 14 15  1  0  0  0  0
 14 16  2  0  0  0  0
 16 25  1  0  0  0  0
M  END
$$$$
