HT1
 OpenBabel04091912263D

 63 68  0  0  0  0  0  0  0  0999 V2000
    0.4790   -5.5514    6.5488 C   0  0  0  0  0  0  0  0  0  0  0  0
    0.7249   -6.3425    7.6444 O   0  0  0  0  0  0  0  0  0  0  0  0
   -0.4604   -5.9125    5.5879 C   0  0  0  0  0  0  0  0  0  0  0  0
   -0.7229   -5.1275    4.4910 C   0  0  0  0  0  0  0  0  0  0  0  0
   -0.0192   -3.9518    4.3457 C   0  0  0  0  0  0  0  0  0  0  0  0
    0.9322   -3.5568    5.2863 C   0  0  0  0  0  0  0  0  0  0  0  0
    1.1828   -4.3588    6.4026 C   0  0  0  0  0  0  0  0  0  0  0  0
   -0.3318   -3.1655    3.1863 C   0  0  0  0  0  0  0  0  0  0  0  0
   -1.2813   -3.4236    2.3182 N   0  0  0  0  0  0  0  0  0  0  0  0
   -1.2262   -2.4324    1.3863 C   0  0  0  0  0  0  0  0  0  0  0  0
   -0.2141   -1.5477    1.7030 C   0  0  0  0  0  0  0  0  0  0  0  0
    0.3633   -2.0142    2.8612 N   0  3  0  0  0  0  0  0  0  0  0  0
    0.1024   -0.4310    0.9581 C   0  0  0  0  0  0  0  0  0  0  0  0
   -0.6716   -0.2159   -0.1733 C   0  0  0  0  0  0  0  0  0  0  0  0
   -1.7052   -1.0857   -0.5290 C   0  0  0  0  0  0  0  0  0  0  0  0
   -2.0039   -2.2152    0.2372 C   0  0  0  0  0  0  0  0  0  0  0  0
   -2.4283   -0.7614   -1.7340 C   0  0  0  0  0  0  0  0  0  0  0  0
   -3.3406   -1.6202   -2.3159 N   0  3  0  0  0  0  0  0  0  0  0  0
   -3.7879   -0.9731   -3.4362 C   0  0  0  0  0  0  0  0  0  0  0  0
   -3.1262    0.2309   -3.4966 C   0  0  0  0  0  0  0  0  0  0  0  0
   -2.2860    0.3392   -2.4282 N   0  0  0  0  0  0  0  0  0  0  0  0
   -3.3737    1.1177   -4.5528 C   0  0  0  0  0  0  0  0  0  0  0  0
   -4.3030    0.7523   -5.5294 C   0  0  0  0  0  0  0  0  0  0  0  0
   -4.9674   -0.4644   -5.4451 C   0  0  0  0  0  0  0  0  0  0  0  0
   -4.6994   -1.3493   -4.3816 C   0  0  0  0  0  0  0  0  0  0  0  0
   -5.8833   -0.8460   -6.4398 N   0  0  0  0  0  0  0  0  0  0  0  0
   -6.9905    0.1081   -6.6172 C   0  0  0  0  0  0  0  0  0  0  0  0
   -7.8156   -0.3152   -7.8418 C   0  0  0  0  0  0  0  0  0  0  0  0
   -8.2774   -1.7658   -7.7134 N   0  3  0  0  0  0  0  0  0  0  0  0
   -7.0931   -2.6748   -7.4631 C   0  0  0  0  0  0  0  0  0  0  0  0
   -6.3693   -2.2097   -6.2321 C   0  0  0  0  0  0  0  0  0  0  0  0
   -9.0035   -2.2239   -8.9246 C   0  0  0  0  0  0  0  0  0  0  0  0
    0.0327   -7.5988    7.5650 C   0  0  0  0  0  0  0  0  0  0  0  0
   -0.1619   -8.1922    8.9254 C   0  0  0  0  0  0  0  0  0  0  0  0
   -1.0303   -6.8222    5.6342 H   0  0  0  0  0  0  0  0  0  0  0  0
   -1.4655   -5.4488    3.7760 H   0  0  0  0  0  0  0  0  0  0  0  0
    1.4777   -2.6253    5.1632 H   0  0  0  0  0  0  0  0  0  0  0  0
    1.9191   -4.0482    7.1330 H   0  0  0  0  0  0  0  0  0  0  0  0
    1.1246   -1.6063    3.3639 H   0  0  0  0  0  0  0  0  0  0  0  0
    0.8967    0.2313    1.2380 H   0  0  0  0  0  0  0  0  0  0  0  0
   -0.4487    0.6489   -0.7904 H   0  0  0  0  0  0  0  0  0  0  0  0
   -2.7972   -2.9007   -0.0373 H   0  0  0  0  0  0  0  0  0  0  0  0
   -3.6039   -2.5229   -1.9868 H   0  0  0  0  0  0  0  0  0  0  0  0
   -2.8563    2.0653   -4.6172 H   0  0  0  0  0  0  0  0  0  0  0  0
   -4.4912    1.4243   -6.3643 H   0  0  0  0  0  0  0  0  0  0  0  0
   -5.1834   -2.3014   -4.2801 H   0  0  0  0  0  0  0  0  0  0  0  0
   -6.6279    1.1232   -6.7807 H   0  0  0  0  0  0  0  0  0  0  0  0
   -7.6225    0.0903   -5.7201 H   0  0  0  0  0  0  0  0  0  0  0  0
   -7.2107   -0.2642   -8.7513 H   0  0  0  0  0  0  0  0  0  0  0  0
   -8.7120    0.2969   -7.9404 H   0  0  0  0  0  0  0  0  0  0  0  0
   -6.4488   -2.6142   -8.3429 H   0  0  0  0  0  0  0  0  0  0  0  0
   -7.4748   -3.6858   -7.3278 H   0  0  0  0  0  0  0  0  0  0  0  0
   -7.0428   -2.2096   -5.3619 H   0  0  0  0  0  0  0  0  0  0  0  0
   -5.5342   -2.8933   -6.0606 H   0  0  0  0  0  0  0  0  0  0  0  0
   -9.8548   -1.5634   -9.0756 H   0  0  0  0  0  0  0  0  0  0  0  0
   -9.3304   -3.2482   -8.7477 H   0  0  0  0  0  0  0  0  0  0  0  0
   -8.3108   -2.1763   -9.7644 H   0  0  0  0  0  0  0  0  0  0  0  0
    0.5856   -8.2768    6.9041 H   0  0  0  0  0  0  0  0  0  0  0  0
   -0.9845   -7.4746    7.1934 H   0  0  0  0  0  0  0  0  0  0  0  0
   -0.7122   -9.1370    8.8476 H   0  0  0  0  0  0  0  0  0  0  0  0
   -0.7374   -7.5031    9.5552 H   0  0  0  0  0  0  0  0  0  0  0  0
    0.8025   -8.3677    9.3855 H   0  0  0  0  0  0  0  0  0  0  0  0
   -8.9006   -1.8228   -6.8976 H   0  0  0  0  0  0  0  0  0  0  0  0
  1  2  1  0  0  0  0
  1  3  2  0  0  0  0
  1  7  1  0  0  0  0
  2 33  1  0  0  0  0
  3  4  1  0  0  0  0
  3 35  1  0  0  0  0
  4  5  2  0  0  0  0
  4 36  1  0  0  0  0
  5  6  1  0  0  0  0
  5  8  1  0  0  0  0
  6  7  2  0  0  0  0
  6 37  1  0  0  0  0
  7 38  1  0  0  0  0
  8  9  1  0  0  0  0
  8 12  2  0  0  0  0
  9 10  1  0  0  0  0
 10 11  2  0  0  0  0
 10 16  1  0  0  0  0
 11 12  1  0  0  0  0
 11 13  1  0  0  0  0
 12 39  1  0  0  0  0
 13 14  2  0  0  0  0
 13 40  1  0  0  0  0
 14 15  1  0  0  0  0
 14 41  1  0  0  0  0
 15 16  2  0  0  0  0
 15 17  1  0  0  0  0
 16 42  1  0  0  0  0
 17 18  2  0  0  0  0
 17 21  1  0  0  0  0
 18 19  1  0  0  0  0
 18 43  1  0  0  0  0
 19 20  2  0  0  0  0
 19 25  1  0  0  0  0
 20 21  1  0  0  0  0
 20 22  1  0  0  0  0
 22 23  2  0  0  0  0
 22 44  1  0  0  0  0
 23 24  1  0  0  0  0
 23 45  1  0  0  0  0
 24 25  2  0  0  0  0
 24 26  1  0  0  0  0
 25 46  1  0  0  0  0
 26 27  1  0  0  0  0
 26 31  1  0  0  0  0
 27 28  1  0  0  0  0
 27 47  1  0  0  0  0
 27 48  1  0  0  0  0
 28 29  1  0  0  0  0
 28 49  1  0  0  0  0
 28 50  1  0  0  0  0
 29 30  1  0  0  0  0
 29 32  1  0  0  0  0
 29 63  1  0  0  0  0
 30 31  1  0  0  0  0
 30 51  1  0  0  0  0
 30 52  1  0  0  0  0
 31 53  1  0  0  0  0
 31 54  1  0  0  0  0
 32 55  1  0  0  0  0
 32 56  1  0  0  0  0
 32 57  1  0  0  0  0
 33 34  1  0  0  0  0
 33 58  1  0  0  0  0
 33 59  1  0  0  0  0
 34 60  1  0  0  0  0
 34 61  1  0  0  0  0
 34 62  1  0  0  0  0
M  CHG  3  12   1  18   1  29   1
M  END
$$$$
