I76
 OpenBabel04091916083D

 54 58  0  0  0  0  0  0  0  0999 V2000
   17.5278   17.8709   63.3049 C   0  0  0  0  0  0  0  0  0  0  0  0
   17.5039   16.5919   62.4713 C   0  0  0  0  0  0  0  0  0  0  0  0
   17.4073   16.9115   60.9819 C   0  0  0  0  0  0  0  0  0  0  0  0
   16.4458   15.6742   62.8755 N   0  3  0  0  0  0  0  0  0  0  0  0
   15.2071   16.1201   63.1809 N   0  0  0  0  0  0  0  0  0  0  0  0
   16.5628   14.3138   62.9278 C   0  0  0  0  0  0  0  0  0  0  0  0
   17.6559   13.5899   62.6342 N   0  0  0  0  0  0  0  0  0  0  0  0
   17.4217   12.2776   62.7770 C   0  0  0  0  0  0  0  0  0  0  0  0
   16.2766   11.6761   63.1533 N   0  0  0  0  0  0  0  0  0  0  0  0
   15.2038   12.4454   63.4392 C   0  0  0  0  0  0  0  0  0  0  0  0
   14.0595   11.7948   63.8356 N   0  0  0  0  0  0  0  0  0  0  0  0
   15.3292   13.8359   63.3294 C   0  0  0  0  0  0  0  0  0  0  0  0
   14.5241   15.0025   63.4941 C   0  0  0  0  0  0  0  0  0  0  0  0
   13.1175   15.0768   63.8799 C   0  0  0  0  0  0  0  0  0  0  0  0
   12.6392   14.4070   65.0140 C   0  0  0  0  0  0  0  0  0  0  0  0
   12.2228   15.8035   63.0885 C   0  0  0  0  0  0  0  0  0  0  0  0
   10.8652   15.8378   63.4031 C   0  0  0  0  0  0  0  0  0  0  0  0
   10.3761   15.1420   64.5137 C   0  0  0  0  0  0  0  0  0  0  0  0
    9.0087   15.1598   64.8205 C   0  0  0  0  0  0  0  0  0  0  0  0
   11.2720   14.4191   65.3318 C   0  0  0  0  0  0  0  0  0  0  0  0
   10.7735   13.7268   66.4418 C   0  0  0  0  0  0  0  0  0  0  0  0
    9.4089   13.7623   66.7394 C   0  0  0  0  0  0  0  0  0  0  0  0
    8.5198   14.4712   65.9272 C   0  0  0  0  0  0  0  0  0  0  0  0
    7.2170   14.4506   66.3314 O   0  0  0  0  0  0  0  0  0  0  0  0
    6.2129   14.8751   65.4037 C   0  0  0  0  0  0  0  0  0  0  0  0
    4.8893   15.0689   66.1101 C   0  0  0  0  0  0  0  0  0  0  0  0
    3.8205   15.6767   65.4310 C   0  0  0  0  0  0  0  0  0  0  0  0
    2.6082   15.8807   66.0874 C   0  0  0  0  0  0  0  0  0  0  0  0
    1.3074   16.6447   65.2584 Cl  0  0  0  0  0  0  0  0  0  0  0  0
    2.4375   15.4806   67.4123 C   0  0  0  0  0  0  0  0  0  0  0  0
    3.4915   14.8704   68.0874 C   0  0  0  0  0  0  0  0  0  0  0  0
    4.7058   14.6614   67.4388 C   0  0  0  0  0  0  0  0  0  0  0  0
   18.3661   18.5087   63.0051 H   0  0  0  0  0  0  0  0  0  0  0  0
   17.6410   17.6394   64.3693 H   0  0  0  0  0  0  0  0  0  0  0  0
   16.6055   18.4482   63.1807 H   0  0  0  0  0  0  0  0  0  0  0  0
   18.4512   16.0677   62.6513 H   0  0  0  0  0  0  0  0  0  0  0  0
   17.4007   15.9953   60.3813 H   0  0  0  0  0  0  0  0  0  0  0  0
   18.2619   17.5168   60.6612 H   0  0  0  0  0  0  0  0  0  0  0  0
   16.4914   17.4670   60.7538 H   0  0  0  0  0  0  0  0  0  0  0  0
   18.2601   11.6208   62.5672 H   0  0  0  0  0  0  0  0  0  0  0  0
   13.1832   12.2826   63.9244 H   0  0  0  0  0  0  0  0  0  0  0  0
   14.0706   10.7870   63.7922 H   0  0  0  0  0  0  0  0  0  0  0  0
   13.3310   13.8549   65.6491 H   0  0  0  0  0  0  0  0  0  0  0  0
   12.5806   16.3416   62.2135 H   0  0  0  0  0  0  0  0  0  0  0  0
   10.1906   16.4089   62.7689 H   0  0  0  0  0  0  0  0  0  0  0  0
    8.3511   15.7400   64.1838 H   0  0  0  0  0  0  0  0  0  0  0  0
   11.4430   13.1579   67.0835 H   0  0  0  0  0  0  0  0  0  0  0  0
    9.0415   13.2309   67.6142 H   0  0  0  0  0  0  0  0  0  0  0  0
    6.0901   14.1041   64.6332 H   0  0  0  0  0  0  0  0  0  0  0  0
    6.4671   15.8389   64.9517 H   0  0  0  0  0  0  0  0  0  0  0  0
    3.9363   16.0012   64.3989 H   0  0  0  0  0  0  0  0  0  0  0  0
    1.4989   15.6427   67.9216 H   0  0  0  0  0  0  0  0  0  0  0  0
    3.3757   14.5565   69.1208 H   0  0  0  0  0  0  0  0  0  0  0  0
    5.5208   14.1876   67.9845 H   0  0  0  0  0  0  0  0  0  0  0  0
  1  2  1  0  0  0  0
  1 33  1  0  0  0  0
  1 34  1  0  0  0  0
  1 35  1  0  0  0  0
  2  3  1  0  0  0  0
  2  4  1  0  0  0  0
  2 36  1  0  0  0  0
  3 37  1  0  0  0  0
  3 38  1  0  0  0  0
  3 39  1  0  0  0  0
  4  5  1  0  0  0  0
  4  6  2  0  0  0  0
  5 13  1  0  0  0  0
  6  7  1  0  0  0  0
  6 12  1  0  0  0  0
  7  8  2  0  0  0  0
  8  9  1  0  0  0  0
  8 40  1  0  0  0  0
  9 10  2  0  0  0  0
 10 11  1  0  0  0  0
 10 12  1  0  0  0  0
 11 41  1  0  0  0  0
 11 42  1  0  0  0  0
 12 13  2  0  0  0  0
 13 14  1  0  0  0  0
 14 15  2  0  0  0  0
 14 16  1  0  0  0  0
 15 20  1  0  0  0  0
 15 43  1  0  0  0  0
 16 17  2  0  0  0  0
 16 44  1  0  0  0  0
 17 18  1  0  0  0  0
 17 45  1  0  0  0  0
 18 19  2  0  0  0  0
 18 20  1  0  0  0  0
 19 23  1  0  0  0  0
 19 46  1  0  0  0  0
 20 21  2  0  0  0  0
 21 22  1  0  0  0  0
 21 47  1  0  0  0  0
 22 23  2  0  0  0  0
 22 48  1  0  0  0  0
 23 24  1  0  0  0  0
 24 25  1  0  0  0  0
 25 26  1  0  0  0  0
 25 49  1  0  0  0  0
 25 50  1  0  0  0  0
 26 27  2  0  0  0  0
 26 32  1  0  0  0  0
 27 28  1  0  0  0  0
 27 51  1  0  0  0  0
 28 29  1  0  0  0  0
 28 30  2  0  0  0  0
 30 31  1  0  0  0  0
 30 52  1  0  0  0  0
 31 32  2  0  0  0  0
 31 53  1  0  0  0  0
 32 54  1  0  0  0  0
M  CHG  1   4   1
M  END
$$$$
