ICF
 OpenBabel04091912253D

 12 11  0  0  1  0  0  0  0  0999 V2000
   27.4222   17.1267    3.7741 F   0  0  0  0  0  0  0  0  0  0  0  0
   28.1984   17.2225    4.8844 C   0  0  0  0  0  0  0  0  0  0  0  0
   29.1659   18.1411    4.6272 F   0  0  0  0  0  0  0  0  0  0  0  0
   28.8174   16.0383    5.0485 F   0  0  0  0  0  0  0  0  0  0  0  0
   27.3885   17.6412    6.1203 C   0  0  2  0  0  0  0  0  0  0  0  0
   26.2399   16.3411    6.5782 Cl  0  0  0  0  0  0  0  0  0  0  0  0
   26.6109   18.8053    5.8282 O   0  0  0  0  0  0  0  0  0  0  0  0
   26.5613   19.7023    6.9176 C   0  0  0  0  0  0  0  0  0  0  0  0
   26.3328   19.0232    8.0586 F   0  0  0  0  0  0  0  0  0  0  0  0
   27.7710   20.2914    7.0262 F   0  0  0  0  0  0  0  0  0  0  0  0
   28.0759   17.7891    6.9608 H   0  0  0  0  0  0  0  0  0  0  0  0
   25.7838   20.4566    6.7616 H   0  0  0  0  0  0  0  0  0  0  0  0
  1  2  1  0  0  0  0
  2  3  1  0  0  0  0
  2  4  1  0  0  0  0
  2  5  1  0  0  0  0
  5  6  1  0  0  0  0
  5  7  1  0  0  0  0
  5 11  1  1  0  0  0
  7  8  1  0  0  0  0
  8  9  1  0  0  0  0
  8 10  1  0  0  0  0
  8 12  1  0  0  0  0
M  END
$$$$
