IFM
 OpenBabel04091914493D

 24 24  0  0  1  0  0  0  0  0999 V2000
   12.8173   42.2915   85.9531 O   0  0  0  0  0  0  0  0  0  0  0  0
   11.6707   42.8667   85.3293 C   0  0  1  0  0  0  0  0  0  0  0  0
   12.1326   44.2049   84.7713 C   0  0  2  0  0  0  0  0  0  0  0  0
   12.4802   45.0559   85.8765 O   0  0  0  0  0  0  0  0  0  0  0  0
   11.0621   44.8944   83.9353 C   0  0  0  0  0  0  0  0  0  0  0  0
   10.5593   43.9610   82.8821 N   0  3  0  0  0  0  0  0  0  0  0  0
   10.0794   42.6624   83.4030 C   0  0  0  0  0  0  0  0  0  0  0  0
   11.1933   41.9647   84.1776 C   0  0  2  0  0  0  0  0  0  0  0  0
   10.7257   40.5770   84.6280 C   0  0  0  0  0  0  0  0  0  0  0  0
    9.4387   40.6528   85.2181 O   0  0  0  0  0  0  0  0  0  0  0  0
   12.5491   41.5612   86.5456 H   0  0  0  0  0  0  0  0  0  0  0  0
   10.8811   43.0244   86.0773 H   0  0  0  0  0  0  0  0  0  0  0  0
   13.0433   44.0531   84.1555 H   0  0  0  0  0  0  0  0  0  0  0  0
   12.9618   45.8441   85.5607 H   0  0  0  0  0  0  0  0  0  0  0  0
   11.4482   45.7739   83.4415 H   0  0  0  0  0  0  0  0  0  0  0  0
   10.2065   45.1913   84.5695 H   0  0  0  0  0  0  0  0  0  0  0  0
    9.7920   44.4274   82.3757 H   0  0  0  0  0  0  0  0  0  0  0  0
    9.7600   42.0642   82.5560 H   0  0  0  0  0  0  0  0  0  0  0  0
    9.1993   42.8807   84.0413 H   0  0  0  0  0  0  0  0  0  0  0  0
   12.0604   41.7984   83.5128 H   0  0  0  0  0  0  0  0  0  0  0  0
   11.4063   40.1352   85.3586 H   0  0  0  0  0  0  0  0  0  0  0  0
   10.6901   39.8936   83.7675 H   0  0  0  0  0  0  0  0  0  0  0  0
    8.7502   40.8142   84.5444 H   0  0  0  0  0  0  0  0  0  0  0  0
   11.2997   43.8007   82.1989 H   0  0  0  0  0  0  0  0  0  0  0  0
  1  2  1  0  0  0  0
  1 11  1  0  0  0  0
  2  3  1  0  0  0  0
  2  8  1  0  0  0  0
  2 12  1  1  0  0  0
  3  4  1  0  0  0  0
  3  5  1  0  0  0  0
  3 13  1  6  0  0  0
  4 14  1  0  0  0  0
  5  6  1  0  0  0  0
  5 15  1  0  0  0  0
  5 16  1  0  0  0  0
  6  7  1  0  0  0  0
  6 17  1  0  0  0  0
  6 24  1  0  0  0  0
  7  8  1  0  0  0  0
  7 18  1  0  0  0  0
  7 19  1  0  0  0  0
  8  9  1  0  0  0  0
  8 20  1  6  0  0  0
  9 10  1  0  0  0  0
  9 21  1  0  0  0  0
  9 22  1  0  0  0  0
 10 23  1  0  0  0  0
M  CHG  1   6   1
M  END
$$$$
