IFS
 OpenBabel04091913113D

 39 39  0  0  0  0  0  0  0  0999 V2000
    3.5728   48.7226   48.7000 C   0  0  0  0  0  0  0  0  0  0  0  0
    5.2242   50.7027   47.5905 O   0  0  0  0  0  0  0  0  0  0  0  0
    5.1624   49.3133   48.1608 P   0  0  0  0  0  0  0  0  0  0  0  0
    3.5273   45.2974   46.9816 S   0  0  0  0  0  0  0  0  0  0  0  0
    3.1849   47.3665   48.8289 C   0  0  0  0  0  0  0  0  0  0  0  0
    1.8968   47.0941   49.3423 C   0  0  0  0  0  0  0  0  0  0  0  0
    1.0263   48.1151   49.7135 C   0  0  0  0  0  0  0  0  0  0  0  0
    1.4063   49.4415   49.5896 C   0  0  0  0  0  0  0  0  0  0  0  0
    2.6703   49.7406   49.0823 C   0  0  0  0  0  0  0  0  0  0  0  0
    4.0532   46.1764   48.4837 C   0  0  0  0  0  0  0  0  0  0  0  0
    6.8988   51.2697   50.3757 C   0  0  0  0  0  0  0  0  0  0  0  0
    7.4878   46.6584   46.7751 C   0  0  0  0  0  0  0  0  0  0  0  0
    5.7485   48.2108   47.1396 O   0  0  0  0  0  0  0  0  0  0  0  0
    6.1214   49.1685   49.4658 O   0  0  0  0  0  0  0  0  0  0  0  0
    5.9150   50.1157   50.5142 C   0  0  0  0  0  0  0  0  0  0  0  0
    7.1361   48.1386   46.8660 C   0  0  0  0  0  0  0  0  0  0  0  0
    6.0696   49.3910   51.8419 C   0  0  0  0  0  0  0  0  0  0  0  0
    7.4325   48.8428   45.5550 C   0  0  0  0  0  0  0  0  0  0  0  0
    3.7288   46.2910   46.1053 H   0  0  0  0  0  0  0  0  0  0  0  0
    1.5655   46.0610   49.4518 H   0  0  0  0  0  0  0  0  0  0  0  0
    0.0414   47.8704   50.1048 H   0  0  0  0  0  0  0  0  0  0  0  0
    0.7350   50.2417   49.8836 H   0  0  0  0  0  0  0  0  0  0  0  0
    2.9627   50.7837   48.9989 H   0  0  0  0  0  0  0  0  0  0  0  0
    5.1060   46.4308   48.4258 H   0  0  0  0  0  0  0  0  0  0  0  0
    3.9922   45.4469   49.3033 H   0  0  0  0  0  0  0  0  0  0  0  0
    6.7567   52.0004   51.1789 H   0  0  0  0  0  0  0  0  0  0  0  0
    6.7581   51.7861   49.4226 H   0  0  0  0  0  0  0  0  0  0  0  0
    7.9331   50.9161   50.3963 H   0  0  0  0  0  0  0  0  0  0  0  0
    8.5513   46.5092   46.5685 H   0  0  0  0  0  0  0  0  0  0  0  0
    6.9040   46.1666   45.9875 H   0  0  0  0  0  0  0  0  0  0  0  0
    7.2434   46.1447   47.7101 H   0  0  0  0  0  0  0  0  0  0  0  0
    4.8997   50.5210   50.4693 H   0  0  0  0  0  0  0  0  0  0  0  0
    7.7175   48.5970   47.6744 H   0  0  0  0  0  0  0  0  0  0  0  0
    5.3631   48.5565   51.8986 H   0  0  0  0  0  0  0  0  0  0  0  0
    5.8783   50.0650   52.6841 H   0  0  0  0  0  0  0  0  0  0  0  0
    7.0732   48.9681   51.9478 H   0  0  0  0  0  0  0  0  0  0  0  0
    7.1798   49.9021   45.6218 H   0  0  0  0  0  0  0  0  0  0  0  0
    6.8300   48.4253   44.7396 H   0  0  0  0  0  0  0  0  0  0  0  0
    8.4922   48.7532   45.2891 H   0  0  0  0  0  0  0  0  0  0  0  0
  1  3  1  0  0  0  0
  1  5  2  0  0  0  0
  1  9  1  0  0  0  0
  2  3  2  0  0  0  0
  3 13  1  0  0  0  0
  3 14  1  0  0  0  0
  4 10  1  0  0  0  0
  4 19  1  0  0  0  0
  5  6  1  0  0  0  0
  5 10  1  0  0  0  0
  6  7  2  0  0  0  0
  6 20  1  0  0  0  0
  7  8  1  0  0  0  0
  7 21  1  0  0  0  0
  8  9  2  0  0  0  0
  8 22  1  0  0  0  0
  9 23  1  0  0  0  0
 10 24  1  0  0  0  0
 10 25  1  0  0  0  0
 11 15  1  0  0  0  0
 11 26  1  0  0  0  0
 11 27  1  0  0  0  0
 11 28  1  0  0  0  0
 12 16  1  0  0  0  0
 12 29  1  0  0  0  0
 12 30  1  0  0  0  0
 12 31  1  0  0  0  0
 13 16  1  0  0  0  0
 14 15  1  0  0  0  0
 15 17  1  0  0  0  0
 15 32  1  0  0  0  0
 16 18  1  0  0  0  0
 16 33  1  0  0  0  0
 17 34  1  0  0  0  0
 17 35  1  0  0  0  0
 17 36  1  0  0  0  0
 18 37  1  0  0  0  0
 18 38  1  0  0  0  0
 18 39  1  0  0  0  0
M  END
$$$$
