ILE
 OpenBabel04091912243D

 22 21  0  0  1  0  0  0  0  0999 V2000
   14.5875  -38.2208   -4.8632 N   0  3  0  0  0  0  0  0  0  0  0  0
   14.3291  -36.9767   -4.0282 C   0  0  2  0  0  0  0  0  0  0  0  0
   15.6960  -36.3584   -3.5732 C   0  0  0  0  0  0  0  0  0  0  0  0
   16.5553  -37.2688   -3.3701 O   0  0  0  0  0  0  0  0  0  0  0  0
   13.4783  -37.3732   -2.8059 C   0  0  2  0  0  0  0  0  0  0  0  0
   12.1409  -38.0193   -3.2394 C   0  0  0  0  0  0  0  0  0  0  0  0
   13.2191  -36.1478   -1.9220 C   0  0  0  0  0  0  0  0  0  0  0  0
   11.2610  -38.4139   -2.0647 C   0  0  0  0  0  0  0  0  0  0  0  0
   15.7780  -35.1111   -3.6195 O   0  0  0  0  0  0  0  0  0  0  0  0
   13.7527  -38.6884   -5.2110 H   0  0  0  0  0  0  0  0  0  0  0  0
   15.2160  -37.9501   -5.6238 H   0  0  0  0  0  0  0  0  0  0  0  0
   13.8008  -36.2789   -4.6856 H   0  0  0  0  0  0  0  0  0  0  0  0
   14.0304  -38.1085   -2.2054 H   0  0  0  0  0  0  0  0  0  0  0  0
   12.3233  -38.9336   -3.8158 H   0  0  0  0  0  0  0  0  0  0  0  0
   11.5910  -37.3343   -3.8953 H   0  0  0  0  0  0  0  0  0  0  0  0
   14.1522  -35.6882   -1.5830 H   0  0  0  0  0  0  0  0  0  0  0  0
   12.6747  -36.4102   -1.0114 H   0  0  0  0  0  0  0  0  0  0  0  0
   12.6442  -35.3949   -2.4693 H   0  0  0  0  0  0  0  0  0  0  0  0
   10.3427  -38.8861   -2.4230 H   0  0  0  0  0  0  0  0  0  0  0  0
   10.9669  -37.5445   -1.4731 H   0  0  0  0  0  0  0  0  0  0  0  0
   11.7870  -39.1210   -1.4154 H   0  0  0  0  0  0  0  0  0  0  0  0
   15.1722  -38.8248   -4.2618 H   0  0  0  0  0  0  0  0  0  0  0  0
  1  2  1  0  0  0  0
  1 10  1  0  0  0  0
  1 11  1  0  0  0  0
  1 22  1  0  0  0  0
  2  3  1  0  0  0  0
  2  5  1  0  0  0  0
  2 12  1  6  0  0  0
  3  4  2  0  0  0  0
  3  9  1  0  0  0  0
  5  6  1  0  0  0  0
  5  7  1  0  0  0  0
  5 13  1  1  0  0  0
  6  8  1  0  0  0  0
  6 14  1  0  0  0  0
  6 15  1  0  0  0  0
  7 16  1  0  0  0  0
  7 17  1  0  0  0  0
  7 18  1  0  0  0  0
  8 19  1  0  0  0  0
  8 20  1  0  0  0  0
  8 21  1  0  0  0  0
M  CHG  1   1   1
M  END
$$$$
