IM4
 OpenBabel04091911113D

 25 26  0  0  0  0  0  0  0  0999 V2000
   55.2953  -20.5337   -6.9127 C   0  0  0  0  0  0  0  0  0  0  0  0
   54.3040  -20.4256   -7.8998 C   0  0  0  0  0  0  0  0  0  0  0  0
   53.1056  -19.8400   -7.5502 C   0  0  0  0  0  0  0  0  0  0  0  0
   51.8243  -19.7031   -8.6834 Cl  0  0  0  0  0  0  0  0  0  0  0  0
   52.8518  -19.3534   -6.3219 N   0  0  0  0  0  0  0  0  0  0  0  0
   53.8334  -19.4709   -5.3916 C   0  0  0  0  0  0  0  0  0  0  0  0
   55.0747  -20.0597   -5.6094 C   0  0  0  0  0  0  0  0  0  0  0  0
   56.1492  -20.1174   -4.5379 C   0  0  0  0  0  0  0  0  0  0  0  0
   55.6244  -20.0686   -3.1687 N   0  3  0  0  0  0  0  0  0  0  0  0
   55.5906  -18.9884   -2.3126 C   0  0  0  0  0  0  0  0  0  0  0  0
   54.9794  -19.4336   -1.1684 C   0  0  0  0  0  0  0  0  0  0  0  0
   54.6926  -20.7481   -1.2948 N   0  0  0  0  0  0  0  0  0  0  0  0
   55.0889  -21.1421   -2.4858 C   0  0  0  0  0  0  0  0  0  0  0  0
   55.0057  -22.3739   -3.0262 N   0  0  0  0  0  0  0  0  0  0  0  0
   54.4404  -23.4064   -2.3445 N   0  0  0  0  0  0  0  0  0  0  0  0
   54.4729  -24.4763   -2.9703 O   0  0  0  0  0  0  0  0  0  0  0  0
   53.9586  -23.2344   -1.2305 O   0  0  0  0  0  0  0  0  0  0  0  0
   56.2439  -20.9786   -7.1980 H   0  0  0  0  0  0  0  0  0  0  0  0
   54.4703  -20.7754   -8.9146 H   0  0  0  0  0  0  0  0  0  0  0  0
   53.5697  -19.0510   -4.4238 H   0  0  0  0  0  0  0  0  0  0  0  0
   56.8759  -19.3082   -4.6568 H   0  0  0  0  0  0  0  0  0  0  0  0
   56.7107  -21.0596   -4.6225 H   0  0  0  0  0  0  0  0  0  0  0  0
   55.9707  -18.0034   -2.5648 H   0  0  0  0  0  0  0  0  0  0  0  0
   54.7160  -18.9101   -0.2550 H   0  0  0  0  0  0  0  0  0  0  0  0
   55.3391  -22.5924   -3.9407 H   0  0  0  0  0  0  0  0  0  0  0  0
  1  2  2  0  0  0  0
  1  7  1  0  0  0  0
  1 18  1  0  0  0  0
  2  3  1  0  0  0  0
  2 19  1  0  0  0  0
  3  4  1  0  0  0  0
  3  5  2  0  0  0  0
  5  6  1  0  0  0  0
  6  7  2  0  0  0  0
  6 20  1  0  0  0  0
  7  8  1  0  0  0  0
  8  9  1  0  0  0  0
  8 21  1  0  0  0  0
  8 22  1  0  0  0  0
  9 10  1  0  0  0  0
  9 13  2  0  0  0  0
 10 11  2  0  0  0  0
 10 23  1  0  0  0  0
 11 12  1  0  0  0  0
 11 24  1  0  0  0  0
 12 13  1  0  0  0  0
 13 14  1  0  0  0  0
 14 15  1  0  0  0  0
 14 25  1  0  0  0  0
 15 16  2  0  0  0  0
 15 17  2  0  0  0  0
M  CHG  1   9   1
M  END
$$$$
