IMN
 OpenBabel04091912513D

 40 42  0  0  0  0  0  0  0  0999 V2000
    0.7932  -11.4873    8.3286 C   0  0  0  0  0  0  0  0  0  0  0  0
    1.2313  -12.6269    7.6350 C   0  0  0  0  0  0  0  0  0  0  0  0
    2.6115  -12.7175    7.2499 C   0  0  0  0  0  0  0  0  0  0  0  0
    3.5228  -11.6875    7.5222 C   0  0  0  0  0  0  0  0  0  0  0  0
    3.1054  -10.6051    8.2171 C   0  0  0  0  0  0  0  0  0  0  0  0
    1.7791  -10.5243    8.5911 C   0  0  0  0  0  0  0  0  0  0  0  0
    5.3996  -10.7327    6.4998 C   0  0  0  0  0  0  0  0  0  0  0  0
    0.1260  -13.5296    7.4750 C   0  0  0  0  0  0  0  0  0  0  0  0
   -0.9678  -12.9080    8.0580 C   0  0  0  0  0  0  0  0  0  0  0  0
   -1.5368  -10.8032    9.2833 C   0  0  0  0  0  0  0  0  0  0  0  0
   -1.4989   -9.4739    9.9603 C   0  0  0  0  0  0  0  0  0  0  0  0
   -2.6949   -8.9960   10.5080 C   0  0  0  0  0  0  0  0  0  0  0  0
   -2.7577   -7.7721   11.1693 C   0  0  0  0  0  0  0  0  0  0  0  0
   -1.6178   -6.9889   11.3073 C   0  0  0  0  0  0  0  0  0  0  0  0
   -0.4329   -7.4272   10.7888 C   0  0  0  0  0  0  0  0  0  0  0  0
   -0.4241   -8.6519   10.1442 C   0  0  0  0  0  0  0  0  0  0  0  0
   -2.3852  -13.4018    8.2015 C   0  0  0  0  0  0  0  0  0  0  0  0
    0.3064  -14.8777    6.8168 C   0  0  0  0  0  0  0  0  0  0  0  0
   -0.8064  -15.8322    6.4112 C   0  0  0  0  0  0  0  0  0  0  0  0
   -0.5842  -11.6474    8.6024 N   0  3  0  0  0  0  0  0  0  0  0  0
    4.8420  -11.8577    7.1817 O   0  0  0  0  0  0  0  0  0  0  0  0
   -2.6942  -11.2389    9.3500 O   0  0  0  0  0  0  0  0  0  0  0  0
   -1.5631  -16.2605    7.3282 O   0  0  0  0  0  0  0  0  0  0  0  0
   -0.7727  -16.2033    5.1975 O   0  0  0  0  0  0  0  0  0  0  0  0
   -1.6627   -5.4807   12.1201 Cl  0  0  0  0  0  0  0  0  0  0  0  0
    2.9482  -13.6058    6.7352 H   0  0  0  0  0  0  0  0  0  0  0  0
    3.7707   -9.8018    8.5337 H   0  0  0  0  0  0  0  0  0  0  0  0
    1.6742   -9.6258    9.1270 H   0  0  0  0  0  0  0  0  0  0  0  0
    6.4475  -10.9739    6.3046 H   0  0  0  0  0  0  0  0  0  0  0  0
    5.3899   -9.8029    7.0822 H   0  0  0  0  0  0  0  0  0  0  0  0
    4.8988  -10.5794    5.5379 H   0  0  0  0  0  0  0  0  0  0  0  0
   -3.6260   -9.5876   10.4271 H   0  0  0  0  0  0  0  0  0  0  0  0
   -3.7066   -7.4377   11.5730 H   0  0  0  0  0  0  0  0  0  0  0  0
    0.4956   -6.8739   10.8579 H   0  0  0  0  0  0  0  0  0  0  0  0
    0.5472   -8.8744    9.8119 H   0  0  0  0  0  0  0  0  0  0  0  0
   -2.5963  -14.3398    7.7134 H   0  0  0  0  0  0  0  0  0  0  0  0
   -3.0898  -12.6963    7.7438 H   0  0  0  0  0  0  0  0  0  0  0  0
   -2.6311  -13.5336    9.2641 H   0  0  0  0  0  0  0  0  0  0  0  0
    0.9631  -15.4641    7.4749 H   0  0  0  0  0  0  0  0  0  0  0  0
    0.8919  -14.6969    5.9024 H   0  0  0  0  0  0  0  0  0  0  0  0
  1  2  2  0  0  0  0
  1  6  1  0  0  0  0
  1 20  1  0  0  0  0
  2  3  1  0  0  0  0
  2  8  1  0  0  0  0
  3  4  2  0  0  0  0
  3 26  1  0  0  0  0
  4  5  1  0  0  0  0
  4 21  1  0  0  0  0
  5  6  2  0  0  0  0
  5 27  1  0  0  0  0
  6 28  1  0  0  0  0
  7 21  1  0  0  0  0
  7 29  1  0  0  0  0
  7 30  1  0  0  0  0
  7 31  1  0  0  0  0
  8  9  2  0  0  0  0
  8 18  1  0  0  0  0
  9 17  1  0  0  0  0
  9 20  1  0  0  0  0
 10 11  1  0  0  0  0
 10 20  1  0  0  0  0
 10 22  2  0  0  0  0
 11 12  2  0  0  0  0
 11 16  1  0  0  0  0
 12 13  1  0  0  0  0
 12 32  1  0  0  0  0
 13 14  2  0  0  0  0
 13 33  1  0  0  0  0
 14 15  1  0  0  0  0
 14 25  1  0  0  0  0
 15 16  2  0  0  0  0
 15 34  1  0  0  0  0
 16 35  1  0  0  0  0
 17 36  1  0  0  0  0
 17 37  1  0  0  0  0
 17 38  1  0  0  0  0
 18 19  1  0  0  0  0
 18 39  1  0  0  0  0
 18 40  1  0  0  0  0
 19 23  2  0  0  0  0
 19 24  1  0  0  0  0
M  CHG  1  20   1
M  END
$$$$
