INO
 OpenBabel04091914353D

 14 14  0  0  0  0  0  0  0  0999 V2000
   13.3516    9.8314   41.4955 N   0  0  0  0  0  0  0  0  0  0  0  0
   14.3749    9.5277   40.6049 C   0  0  0  0  0  0  0  0  0  0  0  0
   15.1765   10.7013   40.1627 C   0  0  0  0  0  0  0  0  0  0  0  0
   14.9000   11.9443   40.5877 C   0  0  0  0  0  0  0  0  0  0  0  0
   13.7580   12.1483   41.4741 C   0  0  0  0  0  0  0  0  0  0  0  0
   13.0363   11.1002   41.9059 C   0  0  0  0  0  0  0  0  0  0  0  0
   15.7988   13.1195   40.1454 C   0  0  0  0  0  0  0  0  0  0  0  0
   16.7766   12.8178   39.3940 O   0  0  0  0  0  0  0  0  0  0  0  0
   15.4868   14.2730   40.5737 O   0  0  0  0  0  0  0  0  0  0  0  0
   14.6847    8.4190   40.1549 O   0  0  0  0  0  0  0  0  0  0  0  0
   12.5209    8.8172   41.9611 O   0  0  0  0  0  0  0  0  0  0  0  0
   15.9937   10.4555   39.4957 H   0  0  0  0  0  0  0  0  0  0  0  0
   13.5018   13.1594   41.7602 H   0  0  0  0  0  0  0  0  0  0  0  0
   12.1823   11.1998   42.5725 H   0  0  0  0  0  0  0  0  0  0  0  0
  1 11  1  0  0  0  0
  1  6  1  0  0  0  0
  1  2  1  0  0  0  0
  2 10  2  0  0  0  0
  2  3  1  0  0  0  0
  3  4  2  0  0  0  0
  3 12  1  0  0  0  0
  4  7  1  0  0  0  0
  4  5  1  0  0  0  0
  5  6  2  0  0  0  0
  5 13  1  0  0  0  0
  6 14  1  0  0  0  0
  7  9  2  0  0  0  0
  7  8  1  0  0  0  0
M  END
$$$$
