IPT
 OpenBabel04091911353D

 33 33  0  0  1  0  0  0  0  0999 V2000
  -14.8593  -27.7734  -26.1943 C   0  0  1  0  0  0  0  0  0  0  0  0
  -13.5759  -27.6194  -25.3454 C   0  0  2  0  0  0  0  0  0  0  0  0
  -13.6918  -26.5219  -24.4221 O   0  0  0  0  0  0  0  0  0  0  0  0
  -12.3735  -27.3217  -26.2632 C   0  0  1  0  0  0  0  0  0  0  0  0
  -11.1843  -27.2214  -25.4744 O   0  0  0  0  0  0  0  0  0  0  0  0
  -12.2603  -28.3775  -27.3836 C   0  0  1  0  0  0  0  0  0  0  0  0
  -11.9057  -29.6393  -26.8174 O   0  0  0  0  0  0  0  0  0  0  0  0
  -13.6081  -28.4396  -28.1298 C   0  0  2  0  0  0  0  0  0  0  0  0
  -14.6852  -28.7178  -27.2428 O   0  0  0  0  0  0  0  0  0  0  0  0
  -13.6610  -29.5350  -29.1969 C   0  0  0  0  0  0  0  0  0  0  0  0
  -12.5971  -29.4053  -30.1236 O   0  0  0  0  0  0  0  0  0  0  0  0
  -16.2701  -28.3461  -25.1739 S   0  0  0  0  0  0  0  0  0  0  0  0
  -17.6829  -27.8380  -26.2327 C   0  0  0  0  0  0  0  0  0  0  0  0
  -18.9621  -28.1772  -25.4642 C   0  0  0  0  0  0  0  0  0  0  0  0
  -17.7152  -28.4921  -27.6112 C   0  0  0  0  0  0  0  0  0  0  0  0
  -15.1319  -26.7960  -26.6154 H   0  0  0  0  0  0  0  0  0  0  0  0
  -13.3760  -28.5264  -24.7609 H   0  0  0  0  0  0  0  0  0  0  0  0
  -12.8295  -26.4961  -23.9612 H   0  0  0  0  0  0  0  0  0  0  0  0
  -12.5141  -26.3366  -26.7199 H   0  0  0  0  0  0  0  0  0  0  0  0
  -10.4248  -27.2246  -26.0784 H   0  0  0  0  0  0  0  0  0  0  0  0
  -11.4466  -28.0987  -28.0621 H   0  0  0  0  0  0  0  0  0  0  0  0
  -11.7686  -30.2707  -27.5493 H   0  0  0  0  0  0  0  0  0  0  0  0
  -13.7852  -27.4696  -28.6160 H   0  0  0  0  0  0  0  0  0  0  0  0
  -14.6195  -29.4969  -29.7310 H   0  0  0  0  0  0  0  0  0  0  0  0
  -13.6161  -30.5284  -28.7367 H   0  0  0  0  0  0  0  0  0  0  0  0
  -12.7572  -28.5974  -30.6427 H   0  0  0  0  0  0  0  0  0  0  0  0
  -17.6340  -26.7517  -26.3524 H   0  0  0  0  0  0  0  0  0  0  0  0
  -19.8449  -27.8802  -26.0407 H   0  0  0  0  0  0  0  0  0  0  0  0
  -19.0061  -27.6439  -24.5077 H   0  0  0  0  0  0  0  0  0  0  0  0
  -19.0450  -29.2520  -25.2655 H   0  0  0  0  0  0  0  0  0  0  0  0
  -18.6257  -28.1953  -28.1480 H   0  0  0  0  0  0  0  0  0  0  0  0
  -17.7099  -29.5871  -27.5547 H   0  0  0  0  0  0  0  0  0  0  0  0
  -16.8791  -28.1676  -28.2374 H   0  0  0  0  0  0  0  0  0  0  0  0
  1  2  1  0  0  0  0
  1  9  1  0  0  0  0
  1 12  1  0  0  0  0
  1 16  1  6  0  0  0
  2  3  1  0  0  0  0
  2  4  1  0  0  0  0
  2 17  1  1  0  0  0
  3 18  1  0  0  0  0
  4  5  1  0  0  0  0
  4  6  1  0  0  0  0
  4 19  1  6  0  0  0
  5 20  1  0  0  0  0
  6  7  1  0  0  0  0
  6  8  1  0  0  0  0
  6 21  1  6  0  0  0
  7 22  1  0  0  0  0
  8  9  1  0  0  0  0
  8 10  1  0  0  0  0
  8 23  1  6  0  0  0
 10 11  1  0  0  0  0
 10 24  1  0  0  0  0
 10 25  1  0  0  0  0
 11 26  1  0  0  0  0
 12 13  1  0  0  0  0
 13 14  1  0  0  0  0
 13 15  1  0  0  0  0
 13 27  1  0  0  0  0
 14 28  1  0  0  0  0
 14 29  1  0  0  0  0
 14 30  1  0  0  0  0
 15 31  1  0  0  0  0
 15 32  1  0  0  0  0
 15 33  1  0  0  0  0
M  END
$$$$
