IRE
 OpenBabel04091915573D

 56 59  0  0  0  0  0  0  0  0999 V2000
    3.4353   46.1076   14.5211 C   0  0  0  0  0  0  0  0  0  0  0  0
    4.3903   44.9249   14.3912 C   0  0  0  0  0  0  0  0  0  0  0  0
    3.6772   43.6867   14.5398 O   0  0  0  0  0  0  0  0  0  0  0  0
    3.1088   43.4495   15.8381 C   0  0  0  0  0  0  0  0  0  0  0  0
    2.8109   44.7194   16.6324 C   0  0  0  0  0  0  0  0  0  0  0  0
    2.4827   45.8206   15.6558 N   0  3  0  0  0  0  0  0  0  0  0  0
    1.5482   46.8874   16.1002 C   0  0  0  0  0  0  0  0  0  0  0  0
    1.9857   47.4770   17.4214 C   0  0  0  0  0  0  0  0  0  0  0  0
    0.7851   47.8161   18.3024 C   0  0  0  0  0  0  0  0  0  0  0  0
    0.0111   48.8089   17.6468 O   0  0  0  0  0  0  0  0  0  0  0  0
   -0.5407   49.8498   18.3423 C   0  0  0  0  0  0  0  0  0  0  0  0
   -1.2016   50.8221   17.5701 C   0  0  0  0  0  0  0  0  0  0  0  0
   -1.7706   51.9391   18.1794 C   0  0  0  0  0  0  0  0  0  0  0  0
   -1.2142   50.6551   16.2016 O   0  0  0  0  0  0  0  0  0  0  0  0
   -2.3261   51.2525   15.5249 C   0  0  0  0  0  0  0  0  0  0  0  0
   -0.5155   50.0160   19.7234 C   0  0  0  0  0  0  0  0  0  0  0  0
   -1.1234   51.1567   20.3269 C   0  0  0  0  0  0  0  0  0  0  0  0
   -1.7562   52.1214   19.5511 C   0  0  0  0  0  0  0  0  0  0  0  0
   -2.3422   53.2146   20.0483 N   0  0  0  0  0  0  0  0  0  0  0  0
   -2.3014   53.3664   21.3770 C   0  0  0  0  0  0  0  0  0  0  0  0
   -1.7304   52.5137   22.2260 N   0  0  0  0  0  0  0  0  0  0  0  0
   -1.1380   51.4228   21.7000 C   0  0  0  0  0  0  0  0  0  0  0  0
   -0.5640   50.4793   22.5655 N   0  0  0  0  0  0  0  0  0  0  0  0
   -0.8091   50.3067   23.9259 C   0  0  0  0  0  0  0  0  0  0  0  0
   -2.0890   50.5126   24.4655 C   0  0  0  0  0  0  0  0  0  0  0  0
   -2.3073   50.3432   25.8246 C   0  0  0  0  0  0  0  0  0  0  0  0
   -3.8685   50.5390   26.5215 Cl  0  0  0  0  0  0  0  0  0  0  0  0
   -1.2432   49.9895   26.6397 C   0  0  0  0  0  0  0  0  0  0  0  0
   -1.4597   49.8189   27.9504 F   0  0  0  0  0  0  0  0  0  0  0  0
    0.0363   49.7967   26.1202 C   0  0  0  0  0  0  0  0  0  0  0  0
    0.2565   49.9537   24.7564 C   0  0  0  0  0  0  0  0  0  0  0  0
    2.7879   46.1693   13.6352 H   0  0  0  0  0  0  0  0  0  0  0  0
    3.9523   47.0654   14.6423 H   0  0  0  0  0  0  0  0  0  0  0  0
    5.1854   45.0019   15.1396 H   0  0  0  0  0  0  0  0  0  0  0  0
    4.8484   44.9412   13.3960 H   0  0  0  0  0  0  0  0  0  0  0  0
    3.7629   42.7964   16.4208 H   0  0  0  0  0  0  0  0  0  0  0  0
    2.1656   42.9099   15.6808 H   0  0  0  0  0  0  0  0  0  0  0  0
    3.6559   44.9907   17.2766 H   0  0  0  0  0  0  0  0  0  0  0  0
    1.9188   44.5736   17.2562 H   0  0  0  0  0  0  0  0  0  0  0  0
    0.5758   46.3924   16.1463 H   0  0  0  0  0  0  0  0  0  0  0  0
    1.4976   47.6327   15.3050 H   0  0  0  0  0  0  0  0  0  0  0  0
    2.5689   48.3769   17.2124 H   0  0  0  0  0  0  0  0  0  0  0  0
    2.6208   46.7822   17.9566 H   0  0  0  0  0  0  0  0  0  0  0  0
    1.1783   48.1239   19.2716 H   0  0  0  0  0  0  0  0  0  0  0  0
    0.1680   46.9178   18.4424 H   0  0  0  0  0  0  0  0  0  0  0  0
   -2.2203   52.7285   17.5992 H   0  0  0  0  0  0  0  0  0  0  0  0
   -2.2269   51.0511   14.4538 H   0  0  0  0  0  0  0  0  0  0  0  0
   -2.3496   52.3408   15.6367 H   0  0  0  0  0  0  0  0  0  0  0  0
   -3.2681   50.8132   15.8709 H   0  0  0  0  0  0  0  0  0  0  0  0
   -0.0423   49.2809   20.3643 H   0  0  0  0  0  0  0  0  0  0  0  0
   -2.7583   54.2572   21.7954 H   0  0  0  0  0  0  0  0  0  0  0  0
    0.2049   49.9448   22.1994 H   0  0  0  0  0  0  0  0  0  0  0  0
   -2.9150   50.7652   23.8056 H   0  0  0  0  0  0  0  0  0  0  0  0
    0.8567   49.5208   26.7712 H   0  0  0  0  0  0  0  0  0  0  0  0
    1.2524   49.8059   24.3425 H   0  0  0  0  0  0  0  0  0  0  0  0
    1.8048   45.2770   15.0759 H   0  0  0  0  0  0  0  0  0  0  0  0
  1  2  1  0  0  0  0
  1  6  1  0  0  0  0
  1 32  1  0  0  0  0
  1 33  1  0  0  0  0
  2  3  1  0  0  0  0
  2 34  1  0  0  0  0
  2 35  1  0  0  0  0
  3  4  1  0  0  0  0
  4  5  1  0  0  0  0
  4 36  1  0  0  0  0
  4 37  1  0  0  0  0
  5  6  1  0  0  0  0
  5 38  1  0  0  0  0
  5 39  1  0  0  0  0
  6  7  1  0  0  0  0
  6 56  1  0  0  0  0
  7  8  1  0  0  0  0
  7 40  1  0  0  0  0
  7 41  1  0  0  0  0
  8  9  1  0  0  0  0
  8 42  1  0  0  0  0
  8 43  1  0  0  0  0
  9 10  1  0  0  0  0
  9 44  1  0  0  0  0
  9 45  1  0  0  0  0
 10 11  1  0  0  0  0
 11 12  2  0  0  0  0
 11 16  1  0  0  0  0
 12 13  1  0  0  0  0
 12 14  1  0  0  0  0
 13 18  2  0  0  0  0
 13 46  1  0  0  0  0
 14 15  1  0  0  0  0
 15 47  1  0  0  0  0
 15 48  1  0  0  0  0
 15 49  1  0  0  0  0
 16 17  2  0  0  0  0
 16 50  1  0  0  0  0
 17 18  1  0  0  0  0
 17 22  1  0  0  0  0
 18 19  1  0  0  0  0
 19 20  2  0  0  0  0
 20 21  1  0  0  0  0
 20 51  1  0  0  0  0
 21 22  2  0  0  0  0
 22 23  1  0  0  0  0
 23 24  1  0  0  0  0
 23 52  1  0  0  0  0
 24 25  2  0  0  0  0
 24 31  1  0  0  0  0
 25 26  1  0  0  0  0
 25 53  1  0  0  0  0
 26 27  1  0  0  0  0
 26 28  2  0  0  0  0
 28 29  1  0  0  0  0
 28 30  1  0  0  0  0
 30 31  2  0  0  0  0
 30 54  1  0  0  0  0
 31 55  1  0  0  0  0
M  CHG  1   6   1
M  END
$$$$
