IT5
 OpenBabel04091914263D

 31 32  0  0  0  0  0  0  0  0999 V2000
   -4.6925    4.1947   10.9303 N   0  0  0  0  0  0  0  0  0  0  0  0
   -5.3270    2.5538   14.8404 N   0  0  0  0  0  0  0  0  0  0  0  0
   -4.9100    0.1428   16.0136 S   0  0  0  0  0  0  0  0  0  0  0  0
   -7.1939    1.7389   16.7007 S   0  0  0  0  0  0  0  0  0  0  0  0
   -4.4176    4.4606   11.9633 C   0  0  0  0  0  0  0  0  0  0  0  0
   -1.2005    7.9229   13.6831 C   0  0  0  0  0  0  0  0  0  0  0  0
   -1.0510    6.9407   12.6933 C   0  0  0  0  0  0  0  0  0  0  0  0
   -2.2420    7.8447   14.6138 C   0  0  0  0  0  0  0  0  0  0  0  0
   -1.9628    5.8934   12.6350 C   0  0  0  0  0  0  0  0  0  0  0  0
   -3.1558    6.7974   14.5544 C   0  0  0  0  0  0  0  0  0  0  0  0
   -6.1305    3.7174   14.4750 C   0  0  0  0  0  0  0  0  0  0  0  0
   -4.2419    2.2410   13.9193 C   0  0  0  0  0  0  0  0  0  0  0  0
   -5.2825    4.9310   14.2013 C   0  0  0  0  0  0  0  0  0  0  0  0
   -3.3042    3.4117   13.9049 C   0  0  0  0  0  0  0  0  0  0  0  0
   -5.6852    1.6078   15.8006 C   0  0  0  0  0  0  0  0  0  0  0  0
   -3.0370    5.8203   13.5386 C   0  0  0  0  0  0  0  0  0  0  0  0
   -4.0206    4.6534   13.3928 C   0  0  0  0  0  0  0  0  0  0  0  0
   -7.6085    2.9762   16.5067 H   0  0  0  0  0  0  0  0  0  0  0  0
   -0.5045    8.7498   13.7333 H   0  0  0  0  0  0  0  0  0  0  0  0
   -0.2391    6.9889   11.9753 H   0  0  0  0  0  0  0  0  0  0  0  0
   -2.3451    8.6067   15.3914 H   0  0  0  0  0  0  0  0  0  0  0  0
   -1.8378    5.1310   11.8603 H   0  0  0  0  0  0  0  0  0  0  0  0
   -3.9461    6.7868   15.3039 H   0  0  0  0  0  0  0  0  0  0  0  0
   -6.7944    3.9722   15.2816 H   0  0  0  0  0  0  0  0  0  0  0  0
   -6.7138    3.4798   13.5855 H   0  0  0  0  0  0  0  0  0  0  0  0
   -4.6276    2.0270   12.9096 H   0  0  0  0  0  0  0  0  0  0  0  0
   -3.6604    1.3632   14.2241 H   0  0  0  0  0  0  0  0  0  0  0  0
   -5.0254    5.3364   15.1801 H   0  0  0  0  0  0  0  0  0  0  0  0
   -5.8713    5.6694   13.6474 H   0  0  0  0  0  0  0  0  0  0  0  0
   -2.4638    3.2025   13.2369 H   0  0  0  0  0  0  0  0  0  0  0  0
   -2.9343    3.5724   14.9288 H   0  0  0  0  0  0  0  0  0  0  0  0
  1  5  3  0  0  0  0
  2 11  1  0  0  0  0
  2 12  1  0  0  0  0
  2 15  1  0  0  0  0
  3 15  2  0  0  0  0
  4 15  1  0  0  0  0
  4 18  1  0  0  0  0
  5 17  1  0  0  0  0
  6  7  2  0  0  0  0
  6  8  1  0  0  0  0
  6 19  1  0  0  0  0
  7  9  1  0  0  0  0
  7 20  1  0  0  0  0
  8 10  2  0  0  0  0
  8 21  1  0  0  0  0
  9 16  2  0  0  0  0
  9 22  1  0  0  0  0
 10 16  1  0  0  0  0
 10 23  1  0  0  0  0
 11 13  1  0  0  0  0
 11 24  1  0  0  0  0
 11 25  1  0  0  0  0
 12 14  1  0  0  0  0
 12 26  1  0  0  0  0
 12 27  1  0  0  0  0
 13 17  1  0  0  0  0
 13 28  1  0  0  0  0
 13 29  1  0  0  0  0
 14 17  1  0  0  0  0
 14 30  1  0  0  0  0
 14 31  1  0  0  0  0
 16 17  1  0  0  0  0
M  END
$$$$
