IVH
 OpenBabel04091914403D

 45 47  0  0  1  0  0  0  0  0999 V2000
  110.7608   91.2769   24.4673 S   0  0  0  0  0  0  0  0  0  0  0  0
  108.8510   95.1169   23.1599 C   0  0  0  0  0  0  0  0  0  0  0  0
  111.4132   88.9949   25.5312 N   0  0  0  0  0  0  0  0  0  0  0  0
  111.3712   92.0284   30.1968 O   0  0  0  0  0  0  0  0  0  0  0  0
  109.1958   93.8329   23.8808 C   0  0  0  0  0  0  0  0  0  0  0  0
  111.6535   90.9219   26.9807 N   0  0  0  0  0  0  0  0  0  0  0  0
  109.2001   93.6659   30.9816 O   0  0  0  0  0  0  0  0  0  0  0  0
  110.3533   94.0166   24.8722 C   0  0  0  0  0  0  0  0  0  0  0  0
  112.5648   90.2881   29.1411 N   0  3  0  0  0  0  0  0  0  0  0  0
  112.9342   95.0870   29.0756 O   0  0  0  0  0  0  0  0  0  0  0  0
  111.4234   92.9215   24.8652 C   0  0  0  0  0  0  0  0  0  0  0  0
  112.7752   88.0854   28.8336 N   0  0  0  0  0  0  0  0  0  0  0  0
  114.4856   93.1886   30.0269 O   0  0  0  0  0  0  0  0  0  0  0  0
  111.3319   90.3099   25.8171 C   0  0  0  0  0  0  0  0  0  0  0  0
  112.0505   86.8230   26.0931 N   0  0  0  0  0  0  0  0  0  0  0  0
  111.9054   88.1488   26.4510 C   0  0  0  0  0  0  0  0  0  0  0  0
  112.2596   88.6739   27.7072 C   0  0  0  0  0  0  0  0  0  0  0  0
  112.1085   90.0413   27.8826 C   0  0  0  0  0  0  0  0  0  0  0  0
  112.9262   89.0789   29.6735 C   0  0  0  0  0  0  0  0  0  0  0  0
  112.6793   91.5469   29.8470 C   0  0  1  0  0  0  0  0  0  0  0  0
  113.4503   92.6827   29.1538 C   0  0  1  0  0  0  0  0  0  0  0  0
  112.3972   93.7759   28.9796 C   0  0  1  0  0  0  0  0  0  0  0  0
  111.4288   93.4705   30.1083 C   0  0  1  0  0  0  0  0  0  0  0  0
  110.0245   94.0102   29.8668 C   0  0  0  0  0  0  0  0  0  0  0  0
  108.0197   94.9421   22.4702 H   0  0  0  0  0  0  0  0  0  0  0  0
  109.7099   95.4580   22.5729 H   0  0  0  0  0  0  0  0  0  0  0  0
  108.5661   95.9044   23.8623 H   0  0  0  0  0  0  0  0  0  0  0  0
  109.4245   93.0975   23.1043 H   0  0  0  0  0  0  0  0  0  0  0  0
  108.3155   93.4637   24.4244 H   0  0  0  0  0  0  0  0  0  0  0  0
  109.3537   92.7149   31.1403 H   0  0  0  0  0  0  0  0  0  0  0  0
  109.9319   94.0860   25.8846 H   0  0  0  0  0  0  0  0  0  0  0  0
  110.8614   94.9741   24.7024 H   0  0  0  0  0  0  0  0  0  0  0  0
  113.5930   95.0623   29.8004 H   0  0  0  0  0  0  0  0  0  0  0  0
  112.1727   93.1543   24.1017 H   0  0  0  0  0  0  0  0  0  0  0  0
  111.9606   92.9492   25.8171 H   0  0  0  0  0  0  0  0  0  0  0  0
  115.1725   92.5011   30.1002 H   0  0  0  0  0  0  0  0  0  0  0  0
  112.1441   86.1632   26.8487 H   0  0  0  0  0  0  0  0  0  0  0  0
  111.5091   86.5629   25.2730 H   0  0  0  0  0  0  0  0  0  0  0  0
  113.3145   88.9711   30.6904 H   0  0  0  0  0  0  0  0  0  0  0  0
  113.1796   91.3199   30.8011 H   0  0  0  0  0  0  0  0  0  0  0  0
  113.9288   92.4113   28.2055 H   0  0  0  0  0  0  0  0  0  0  0  0
  111.8989   93.6733   28.0109 H   0  0  0  0  0  0  0  0  0  0  0  0
  111.8008   93.8490   31.0696 H   0  0  0  0  0  0  0  0  0  0  0  0
  110.0207   95.0985   29.7566 H   0  0  0  0  0  0  0  0  0  0  0  0
  109.5752   93.5585   28.9769 H   0  0  0  0  0  0  0  0  0  0  0  0
  1 11  1  0  0  0  0
  1 14  1  0  0  0  0
  2  5  1  0  0  0  0
  2 25  1  0  0  0  0
  2 26  1  0  0  0  0
  2 27  1  0  0  0  0
  3 14  2  0  0  0  0
  3 16  1  0  0  0  0
  4 20  1  0  0  0  0
  4 23  1  0  0  0  0
  5  8  1  0  0  0  0
  5 28  1  0  0  0  0
  5 29  1  0  0  0  0
  6 14  1  0  0  0  0
  6 18  2  0  0  0  0
  7 24  1  0  0  0  0
  7 30  1  0  0  0  0
  8 11  1  0  0  0  0
  8 31  1  0  0  0  0
  8 32  1  0  0  0  0
  9 18  1  0  0  0  0
  9 19  2  0  0  0  0
  9 20  1  0  0  0  0
 10 22  1  0  0  0  0
 10 33  1  0  0  0  0
 11 34  1  0  0  0  0
 11 35  1  0  0  0  0
 12 17  1  0  0  0  0
 12 19  1  0  0  0  0
 13 21  1  0  0  0  0
 13 36  1  0  0  0  0
 15 16  1  0  0  0  0
 15 37  1  0  0  0  0
 15 38  1  0  0  0  0
 16 17  2  0  0  0  0
 17 18  1  0  0  0  0
 19 39  1  0  0  0  0
 20 21  1  0  0  0  0
 20 40  1  1  0  0  0
 21 22  1  0  0  0  0
 21 41  1  6  0  0  0
 22 23  1  0  0  0  0
 22 42  1  6  0  0  0
 23 24  1  0  0  0  0
 23 43  1  1  0  0  0
 24 44  1  0  0  0  0
 24 45  1  0  0  0  0
M  CHG  1   9   1
M  END
$$$$
