IX6
 OpenBabel04091912563D

 73 77  0  0  1  0  0  0  0  0999 V2000
  -20.9392   -6.8859   30.0223 C   0  0  0  0  0  0  0  0  0  0  0  0
  -21.1954   -7.9105   29.1201 C   0  0  0  0  0  0  0  0  0  0  0  0
  -22.4709   -8.0500   28.5844 C   0  0  0  0  0  0  0  0  0  0  0  0
  -23.4963   -7.1646   28.9651 C   0  0  0  0  0  0  0  0  0  0  0  0
  -23.2605   -6.1377   29.8795 C   0  0  0  0  0  0  0  0  0  0  0  0
  -21.9632   -6.0192   30.3856 C   0  0  0  0  0  0  0  0  0  0  0  0
  -25.8826   -7.5538   29.4112 C   0  0  2  0  0  0  0  0  0  0  0  0
  -26.1428   -3.8650   30.8282 C   0  0  0  0  0  0  0  0  0  0  0  0
  -25.3409   -8.1377   31.8854 C   0  0  0  0  0  0  0  0  0  0  0  0
  -25.4595   -8.5178   30.5394 C   0  0  0  0  0  0  0  0  0  0  0  0
  -24.8766   -9.0298   32.8606 C   0  0  0  0  0  0  0  0  0  0  0  0
  -24.5124  -10.3262   32.5137 C   0  0  0  0  0  0  0  0  0  0  0  0
  -25.0877   -9.8269   30.2139 C   0  0  0  0  0  0  0  0  0  0  0  0
  -27.5472   -4.7170   32.7649 C   0  0  0  0  0  0  0  0  0  0  0  0
  -26.4609  -11.6867   34.9114 C   0  0  0  0  0  0  0  0  0  0  0  0
  -21.7271   -4.9837   31.2527 O   0  0  0  0  0  0  0  0  0  0  0  0
  -25.0134   -7.4695   27.0432 C   0  0  0  0  0  0  0  0  0  0  0  0
  -24.0576   -6.8708   26.1124 C   0  0  0  0  0  0  0  0  0  0  0  0
  -23.6620   -5.5513   26.0473 C   0  0  0  0  0  0  0  0  0  0  0  0
  -22.8326   -6.6202   24.3769 C   0  0  0  0  0  0  0  0  0  0  0  0
  -22.0223   -6.7695   23.1522 C   0  0  0  0  0  0  0  0  0  0  0  0
  -23.9529   -4.3693   26.8631 C   0  0  0  0  0  0  0  0  0  0  0  0
  -25.1448  -10.2378   28.9386 F   0  0  0  0  0  0  0  0  0  0  0  0
  -24.6099  -10.7164   31.1769 C   0  0  0  0  0  0  0  0  0  0  0  0
  -24.0675  -11.2908   33.3773 O   0  0  0  0  0  0  0  0  0  0  0  0
  -24.0466  -11.0223   34.7899 C   0  0  0  0  0  0  0  0  0  0  0  0
  -25.4237  -11.0089   35.4241 C   0  0  0  0  0  0  0  0  0  0  0  0
  -25.6204  -10.1734   36.6579 C   0  0  0  0  0  0  0  0  0  0  0  0
  -24.7891   -7.3339   28.4229 N   0  0  0  0  0  0  0  0  0  0  0  0
  -23.5378   -7.5352   25.0090 N   0  0  0  0  0  0  0  0  0  0  0  0
  -22.8662   -5.3799   24.9494 O   0  0  0  0  0  0  0  0  0  0  0  0
  -26.0323   -7.9878   26.6223 O   0  0  0  0  0  0  0  0  0  0  0  0
  -26.3729   -6.1944   29.8757 C   0  0  0  0  0  0  0  0  0  0  0  0
  -28.0939   -6.0059   29.7579 S   0  0  0  0  0  0  0  0  0  0  0  0
  -28.7103   -7.0252   30.5875 O   0  0  0  0  0  0  0  0  0  0  0  0
  -28.4147   -5.9193   28.3460 O   0  0  0  0  0  0  0  0  0  0  0  0
  -28.5305   -4.4263   30.4610 C   0  0  0  0  0  0  0  0  0  0  0  0
  -27.5328   -3.8861   31.4756 C   0  0  0  0  0  0  0  0  0  0  0  0
  -27.9080   -2.4308   31.8308 C   0  0  0  0  0  0  0  0  0  0  0  0
  -25.5923   -5.1712   30.2824 C   0  0  0  0  0  0  0  0  0  0  0  0
  -24.2134   -5.2021   30.3285 N   0  0  0  0  0  0  0  0  0  0  0  0
  -19.9435   -6.7732   30.4349 H   0  0  0  0  0  0  0  0  0  0  0  0
  -20.4074   -8.6024   28.8379 H   0  0  0  0  0  0  0  0  0  0  0  0
  -22.6742   -8.8820   27.9107 H   0  0  0  0  0  0  0  0  0  0  0  0
  -26.7102   -8.0682   28.9036 H   0  0  0  0  0  0  0  0  0  0  0  0
  -25.4444   -3.4762   31.5837 H   0  0  0  0  0  0  0  0  0  0  0  0
  -26.1412   -3.1493   29.9972 H   0  0  0  0  0  0  0  0  0  0  0  0
  -25.5776   -7.1294   32.2055 H   0  0  0  0  0  0  0  0  0  0  0  0
  -24.8120   -8.6739   33.8825 H   0  0  0  0  0  0  0  0  0  0  0  0
  -28.5359   -4.7001   33.2369 H   0  0  0  0  0  0  0  0  0  0  0  0
  -26.8198   -4.3351   33.4896 H   0  0  0  0  0  0  0  0  0  0  0  0
  -27.2994   -5.7608   32.5711 H   0  0  0  0  0  0  0  0  0  0  0  0
  -27.4470  -11.6314   35.3567 H   0  0  0  0  0  0  0  0  0  0  0  0
  -26.3473  -12.2907   34.0162 H   0  0  0  0  0  0  0  0  0  0  0  0
  -20.7918   -5.0337   31.5073 H   0  0  0  0  0  0  0  0  0  0  0  0
  -22.0781   -7.8062   22.8086 H   0  0  0  0  0  0  0  0  0  0  0  0
  -20.9710   -6.5310   23.3420 H   0  0  0  0  0  0  0  0  0  0  0  0
  -22.3903   -6.1214   22.3510 H   0  0  0  0  0  0  0  0  0  0  0  0
  -23.4259   -3.4795   26.5143 H   0  0  0  0  0  0  0  0  0  0  0  0
  -23.6215   -4.5546   27.8790 H   0  0  0  0  0  0  0  0  0  0  0  0
  -25.0284   -4.1736   26.8768 H   0  0  0  0  0  0  0  0  0  0  0  0
  -24.3162  -11.7148   30.8686 H   0  0  0  0  0  0  0  0  0  0  0  0
  -23.4761  -10.1112   35.0030 H   0  0  0  0  0  0  0  0  0  0  0  0
  -23.4849  -11.8497   35.2424 H   0  0  0  0  0  0  0  0  0  0  0  0
  -26.6627  -10.2155   36.9973 H   0  0  0  0  0  0  0  0  0  0  0  0
  -25.3850   -9.1230   36.4641 H   0  0  0  0  0  0  0  0  0  0  0  0
  -24.9930  -10.5374   37.4777 H   0  0  0  0  0  0  0  0  0  0  0  0
  -29.5270   -4.5243   30.9096 H   0  0  0  0  0  0  0  0  0  0  0  0
  -28.6254   -3.7170   29.6290 H   0  0  0  0  0  0  0  0  0  0  0  0
  -27.2152   -2.0095   32.5695 H   0  0  0  0  0  0  0  0  0  0  0  0
  -28.9208   -2.3638   32.2420 H   0  0  0  0  0  0  0  0  0  0  0  0
  -27.8669   -1.7898   30.9421 H   0  0  0  0  0  0  0  0  0  0  0  0
  -23.7398   -4.3764   30.6969 H   0  0  0  0  0  0  0  0  0  0  0  0
  1  2  2  0  0  0  0
  1  6  1  0  0  0  0
  1 42  1  0  0  0  0
  2  3  1  0  0  0  0
  2 43  1  0  0  0  0
  3  4  2  0  0  0  0
  3 44  1  0  0  0  0
  4  5  1  0  0  0  0
  4 29  1  0  0  0  0
  5  6  2  0  0  0  0
  5 41  1  0  0  0  0
  6 16  1  0  0  0  0
  7 10  1  0  0  0  0
  7 29  1  0  0  0  0
  7 33  1  0  0  0  0
  7 45  1  6  0  0  0
  8 38  1  0  0  0  0
  8 40  1  0  0  0  0
  8 46  1  0  0  0  0
  8 47  1  0  0  0  0
  9 10  2  0  0  0  0
  9 11  1  0  0  0  0
  9 48  1  0  0  0  0
 10 13  1  0  0  0  0
 11 12  2  0  0  0  0
 11 49  1  0  0  0  0
 12 24  1  0  0  0  0
 12 25  1  0  0  0  0
 13 23  1  0  0  0  0
 13 24  2  0  0  0  0
 14 38  1  0  0  0  0
 14 50  1  0  0  0  0
 14 51  1  0  0  0  0
 14 52  1  0  0  0  0
 15 27  2  0  0  0  0
 15 53  1  0  0  0  0
 15 54  1  0  0  0  0
 16 55  1  0  0  0  0
 17 18  1  0  0  0  0
 17 29  1  0  0  0  0
 17 32  2  0  0  0  0
 18 19  2  0  0  0  0
 18 30  1  0  0  0  0
 19 22  1  0  0  0  0
 19 31  1  0  0  0  0
 20 21  1  0  0  0  0
 20 30  2  0  0  0  0
 20 31  1  0  0  0  0
 21 56  1  0  0  0  0
 21 57  1  0  0  0  0
 21 58  1  0  0  0  0
 22 59  1  0  0  0  0
 22 60  1  0  0  0  0
 22 61  1  0  0  0  0
 24 62  1  0  0  0  0
 25 26  1  0  0  0  0
 26 27  1  0  0  0  0
 26 63  1  0  0  0  0
 26 64  1  0  0  0  0
 27 28  1  0  0  0  0
 28 65  1  0  0  0  0
 28 66  1  0  0  0  0
 28 67  1  0  0  0  0
 33 34  1  0  0  0  0
 33 40  2  0  0  0  0
 34 35  2  0  0  0  0
 34 36  2  0  0  0  0
 34 37  1  0  0  0  0
 37 38  1  0  0  0  0
 37 68  1  0  0  0  0
 37 69  1  0  0  0  0
 38 39  1  0  0  0  0
 39 70  1  0  0  0  0
 39 71  1  0  0  0  0
 39 72  1  0  0  0  0
 40 41  1  0  0  0  0
 41 73  1  0  0  0  0
M  END
$$$$
