IXV
 OpenBabel04091916383D

 58 61  0  0  0  0  0  0  0  0999 V2000
   23.3022    3.0183   56.0082 O   0  0  0  0  0  0  0  0  0  0  0  0
   22.6817    3.0280   57.0747 C   0  0  0  0  0  0  0  0  0  0  0  0
   22.2619    1.7473   57.7606 C   0  0  0  0  0  0  0  0  0  0  0  0
   22.6026    0.5169   56.9146 C   0  0  0  0  0  0  0  0  0  0  0  0
   22.1814   -0.7145   57.5770 N   0  0  0  0  0  0  0  0  0  0  0  0
   20.9732   -1.3459   57.3473 C   0  0  0  0  0  0  0  0  0  0  0  0
   20.5941   -2.4530   58.1205 C   0  0  0  0  0  0  0  0  0  0  0  0
   19.3631   -3.0912   57.9149 C   0  0  0  0  0  0  0  0  0  0  0  0
   18.4904   -2.6366   56.9272 C   0  0  0  0  0  0  0  0  0  0  0  0
   18.8476   -1.5439   56.1525 C   0  0  0  0  0  0  0  0  0  0  0  0
   20.0702   -0.9077   56.3675 C   0  0  0  0  0  0  0  0  0  0  0  0
   22.3714    4.1829   57.7841 N   0  0  0  0  0  0  0  0  0  0  0  0
   23.1555    5.3082   57.5977 C   0  0  0  0  0  0  0  0  0  0  0  0
   22.7014    6.3065   56.2989 S   0  0  0  0  0  0  0  0  0  0  0  0
   24.1569    5.8670   58.3835 C   0  0  0  0  0  0  0  0  0  0  0  0
   24.5702    7.1529   57.8561 C   0  0  0  0  0  0  0  0  0  0  0  0
   25.5977    8.0466   58.3848 C   0  0  0  0  0  0  0  0  0  0  0  0
   25.3406    9.4248   58.5427 C   0  0  0  0  0  0  0  0  0  0  0  0
   26.3228   10.2672   59.0604 C   0  0  0  0  0  0  0  0  0  0  0  0
   27.5606    9.7624   59.4367 C   0  0  0  0  0  0  0  0  0  0  0  0
   27.8429    8.4002   59.2678 C   0  0  0  0  0  0  0  0  0  0  0  0
   26.8580    7.5523   58.7493 C   0  0  0  0  0  0  0  0  0  0  0  0
   23.8496    7.4961   56.7261 C   0  0  0  0  0  0  0  0  0  0  0  0
   24.6755    5.2805   59.6169 C   0  0  0  0  0  0  0  0  0  0  0  0
   24.4278    5.7687   60.7045 O   0  0  0  0  0  0  0  0  0  0  0  0
   25.4532    4.1507   59.4404 N   0  0  0  0  0  0  0  0  0  0  0  0
   25.8983    3.3582   60.5683 C   0  0  0  0  0  0  0  0  0  0  0  0
   24.9210    2.2477   60.8736 C   0  0  0  0  0  0  0  0  0  0  0  0
   25.3021    0.9008   60.7931 C   0  0  0  0  0  0  0  0  0  0  0  0
   24.3837   -0.1136   61.0870 C   0  0  0  0  0  0  0  0  0  0  0  0
   23.0797    0.2098   61.4604 C   0  0  0  0  0  0  0  0  0  0  0  0
   22.6920    1.5438   61.5528 C   0  0  0  0  0  0  0  0  0  0  0  0
   23.6089    2.5542   61.2682 C   0  0  0  0  0  0  0  0  0  0  0  0
   21.1907    1.7731   57.9996 H   0  0  0  0  0  0  0  0  0  0  0  0
   22.8144    1.6704   58.7055 H   0  0  0  0  0  0  0  0  0  0  0  0
   23.6837    0.4633   56.7451 H   0  0  0  0  0  0  0  0  0  0  0  0
   22.1714    0.6184   55.9144 H   0  0  0  0  0  0  0  0  0  0  0  0
   22.8246   -1.1280   58.2435 H   0  0  0  0  0  0  0  0  0  0  0  0
   21.2504   -2.8327   58.8979 H   0  0  0  0  0  0  0  0  0  0  0  0
   19.0839   -3.9464   58.5241 H   0  0  0  0  0  0  0  0  0  0  0  0
   17.5373   -3.1304   56.7611 H   0  0  0  0  0  0  0  0  0  0  0  0
   18.1878   -1.1744   55.3729 H   0  0  0  0  0  0  0  0  0  0  0  0
   20.2985   -0.0609   55.7323 H   0  0  0  0  0  0  0  0  0  0  0  0
   21.8634    4.1080   58.6586 H   0  0  0  0  0  0  0  0  0  0  0  0
   24.3684    9.8385   58.2832 H   0  0  0  0  0  0  0  0  0  0  0  0
   26.1133   11.3314   59.1824 H   0  0  0  0  0  0  0  0  0  0  0  0
   28.3070   10.4250   59.8433 H   0  0  0  0  0  0  0  0  0  0  0  0
   28.8030    8.0022   59.5531 H   0  0  0  0  0  0  0  0  0  0  0  0
   27.0941    6.4970   58.6275 H   0  0  0  0  0  0  0  0  0  0  0  0
   23.9359    8.3961   56.1269 H   0  0  0  0  0  0  0  0  0  0  0  0
   25.7031    3.8635   58.5006 H   0  0  0  0  0  0  0  0  0  0  0  0
   26.0213    3.9853   61.4580 H   0  0  0  0  0  0  0  0  0  0  0  0
   26.8822    2.9502   60.3128 H   0  0  0  0  0  0  0  0  0  0  0  0
   26.3162    0.6276   60.5162 H   0  0  0  0  0  0  0  0  0  0  0  0
   24.6895   -1.1554   61.0307 H   0  0  0  0  0  0  0  0  0  0  0  0
   22.3651   -0.5776   61.6869 H   0  0  0  0  0  0  0  0  0  0  0  0
   21.6771    1.7999   61.8443 H   0  0  0  0  0  0  0  0  0  0  0  0
   23.2917    3.5911   61.3578 H   0  0  0  0  0  0  0  0  0  0  0  0
  1  2  2  0  0  0  0
  2  3  1  0  0  0  0
  2 12  1  0  0  0  0
  3  4  1  0  0  0  0
  3 34  1  0  0  0  0
  3 35  1  0  0  0  0
  4  5  1  0  0  0  0
  4 36  1  0  0  0  0
  4 37  1  0  0  0  0
  5  6  1  0  0  0  0
  5 38  1  0  0  0  0
  6  7  2  0  0  0  0
  6 11  1  0  0  0  0
  7  8  1  0  0  0  0
  7 39  1  0  0  0  0
  8  9  2  0  0  0  0
  8 40  1  0  0  0  0
  9 10  1  0  0  0  0
  9 41  1  0  0  0  0
 10 11  2  0  0  0  0
 10 42  1  0  0  0  0
 11 43  1  0  0  0  0
 12 13  1  0  0  0  0
 12 44  1  0  0  0  0
 13 14  1  0  0  0  0
 13 15  2  0  0  0  0
 14 23  1  0  0  0  0
 15 16  1  0  0  0  0
 15 24  1  0  0  0  0
 16 17  1  0  0  0  0
 16 23  2  0  0  0  0
 17 18  2  0  0  0  0
 17 22  1  0  0  0  0
 18 19  1  0  0  0  0
 18 45  1  0  0  0  0
 19 20  2  0  0  0  0
 19 46  1  0  0  0  0
 20 21  1  0  0  0  0
 20 47  1  0  0  0  0
 21 22  2  0  0  0  0
 21 48  1  0  0  0  0
 22 49  1  0  0  0  0
 23 50  1  0  0  0  0
 24 25  2  0  0  0  0
 24 26  1  0  0  0  0
 26 27  1  0  0  0  0
 26 51  1  0  0  0  0
 27 28  1  0  0  0  0
 27 52  1  0  0  0  0
 27 53  1  0  0  0  0
 28 29  2  0  0  0  0
 28 33  1  0  0  0  0
 29 30  1  0  0  0  0
 29 54  1  0  0  0  0
 30 31  2  0  0  0  0
 30 55  1  0  0  0  0
 31 32  1  0  0  0  0
 31 56  1  0  0  0  0
 32 33  2  0  0  0  0
 32 57  1  0  0  0  0
 33 58  1  0  0  0  0
M  END
$$$$
