J43
 OpenBabel04091913483D

 33 34  0  0  0  0  0  0  0  0999 V2000
    0.0016    5.5567   11.7926 N   0  0  0  0  0  0  0  0  0  0  0  0
   -0.8304    4.5116   11.7896 C   0  0  0  0  0  0  0  0  0  0  0  0
   -1.9571    4.4491   12.5022 N   0  0  0  0  0  0  0  0  0  0  0  0
   -2.2996    5.5222   13.2634 C   0  0  0  0  0  0  0  0  0  0  0  0
   -1.5017    6.6488   13.3406 C   0  0  0  0  0  0  0  0  0  0  0  0
   -0.3583    6.5963   12.5730 C   0  0  0  0  0  0  0  0  0  0  0  0
   -3.4815    5.4136   14.0121 N   0  0  0  0  0  0  0  0  0  0  0  0
   -4.0448    4.2962   14.6423 C   0  0  0  0  0  0  0  0  0  0  0  0
   -3.3158    3.1233   14.8867 C   0  0  0  0  0  0  0  0  0  0  0  0
   -3.8883    2.0484   15.5667 C   0  0  0  0  0  0  0  0  0  0  0  0
   -5.2174    2.1334   15.9814 C   0  0  0  0  0  0  0  0  0  0  0  0
   -5.9747    3.2728   15.7095 C   0  0  0  0  0  0  0  0  0  0  0  0
   -5.3845    4.3500   15.0465 C   0  0  0  0  0  0  0  0  0  0  0  0
   -5.9499    0.8124   16.8977 S   0  0  0  0  0  0  0  0  0  0  0  0
   -7.3704    0.8187   16.6530 O   0  0  0  0  0  0  0  0  0  0  0  0
   -5.3961    0.8503   18.2390 O   0  0  0  0  0  0  0  0  0  0  0  0
   -5.3528   -0.5649   16.1814 N   0  0  0  0  0  0  0  0  0  0  0  0
   -1.8228    7.8155   14.1771 C   0  0  0  0  0  0  0  0  0  0  0  0
   -2.7787    7.8306   14.9486 O   0  0  0  0  0  0  0  0  0  0  0  0
    0.8005    7.8691   12.5043 Cl  0  0  0  0  0  0  0  0  0  0  0  0
   -0.4098    3.1658   10.7134 S   0  0  0  0  0  0  0  0  0  0  0  0
   -1.4312    1.8234   11.3812 C   0  0  0  0  0  0  0  0  0  0  0  0
   -3.9976    6.2846   14.1135 H   0  0  0  0  0  0  0  0  0  0  0  0
   -2.2708    3.0526   14.5962 H   0  0  0  0  0  0  0  0  0  0  0  0
   -3.2772    1.1811   15.7990 H   0  0  0  0  0  0  0  0  0  0  0  0
   -7.0085    3.3482   16.0394 H   0  0  0  0  0  0  0  0  0  0  0  0
   -5.9780    5.2438   14.8647 H   0  0  0  0  0  0  0  0  0  0  0  0
   -5.7377   -1.4429   16.5185 H   0  0  0  0  0  0  0  0  0  0  0  0
   -4.8170   -0.5226   15.3216 H   0  0  0  0  0  0  0  0  0  0  0  0
   -1.1916    8.7091   14.0890 H   0  0  0  0  0  0  0  0  0  0  0  0
   -1.2526    0.9256   10.7799 H   0  0  0  0  0  0  0  0  0  0  0  0
   -2.4988    2.0540   11.3268 H   0  0  0  0  0  0  0  0  0  0  0  0
   -1.1539    1.5955   12.4142 H   0  0  0  0  0  0  0  0  0  0  0  0
  1  2  2  0  0  0  0
  1  6  1  0  0  0  0
  2  3  1  0  0  0  0
  2 21  1  0  0  0  0
  3  4  2  0  0  0  0
  4  5  1  0  0  0  0
  4  7  1  0  0  0  0
  5  6  2  0  0  0  0
  5 18  1  0  0  0  0
  6 20  1  0  0  0  0
  7  8  1  0  0  0  0
  7 23  1  0  0  0  0
  8  9  2  0  0  0  0
  8 13  1  0  0  0  0
  9 10  1  0  0  0  0
  9 24  1  0  0  0  0
 10 11  2  0  0  0  0
 10 25  1  0  0  0  0
 11 12  1  0  0  0  0
 11 14  1  0  0  0  0
 12 13  2  0  0  0  0
 12 26  1  0  0  0  0
 13 27  1  0  0  0  0
 14 15  2  0  0  0  0
 14 16  2  0  0  0  0
 14 17  1  0  0  0  0
 17 28  1  0  0  0  0
 17 29  1  0  0  0  0
 18 19  2  0  0  0  0
 18 30  1  0  0  0  0
 21 22  1  0  0  0  0
 22 31  1  0  0  0  0
 22 32  1  0  0  0  0
 22 33  1  0  0  0  0
M  END
$$$$
