J9Z
 OpenBabel04091913103D

 42 44  0  0  1  0  0  0  0  0999 V2000
   13.9009    6.5932    1.1399 C   0  0  0  0  0  0  0  0  0  0  0  0
   13.1717    3.4049    1.1545 N   0  0  0  0  0  0  0  0  0  0  0  0
   12.2680    4.4128    3.0206 O   0  0  0  0  0  0  0  0  0  0  0  0
   16.7780    0.7676    3.0419 P   0  0  0  0  0  0  0  0  0  0  0  0
   13.5315    7.8659    1.5779 C   0  0  0  0  0  0  0  0  0  0  0  0
   15.6557    0.8635    4.0624 O   0  0  0  0  0  0  0  0  0  0  0  0
   14.2225    8.4678    2.6271 C   0  0  0  0  0  0  0  0  0  0  0  0
   16.4594    1.9604    1.9733 O   0  0  0  0  0  0  0  0  0  0  0  0
    9.6538    5.1770    1.6835 S   0  0  0  0  0  0  0  0  0  0  0  0
   15.2655    7.7869    3.2532 C   0  0  0  0  0  0  0  0  0  0  0  0
   18.1525    1.1550    3.5635 O   0  0  0  0  0  0  0  0  0  0  0  0
   15.6192    6.5047    2.8296 C   0  0  0  0  0  0  0  0  0  0  0  0
   16.7425   -0.4846    2.1783 O   0  0  0  0  0  0  0  0  0  0  0  0
   14.9469    5.8966    1.7618 C   0  0  0  0  0  0  0  0  0  0  0  0
   15.3832    4.5245    1.2825 C   0  0  0  0  0  0  0  0  0  0  0  0
   14.5111    3.3183    1.7221 C   0  0  2  0  0  0  0  0  0  0  0  0
    8.6405    3.5180   -1.7156 C   0  0  0  0  0  0  0  0  0  0  0  0
    7.3762    4.0081   -2.0185 C   0  0  0  0  0  0  0  0  0  0  0  0
    6.7514    4.9075   -1.1623 C   0  0  0  0  0  0  0  0  0  0  0  0
    7.3859    5.3353    0.0231 C   0  0  0  0  0  0  0  0  0  0  0  0
    8.6575    4.8344    0.3157 C   0  0  0  0  0  0  0  0  0  0  0  0
    9.2885    3.9317   -0.5362 C   0  0  0  0  0  0  0  0  0  0  0  0
   10.5644    3.5403   -0.0483 C   0  0  0  0  0  0  0  0  0  0  0  0
   10.9064    4.1539    1.1308 C   0  0  0  0  0  0  0  0  0  0  0  0
   12.1400    4.0102    1.8757 C   0  0  0  0  0  0  0  0  0  0  0  0
   15.1970    1.9924    1.3473 C   0  0  0  0  0  0  0  0  0  0  0  0
   13.3537    6.1343    0.3222 H   0  0  0  0  0  0  0  0  0  0  0  0
   13.0677    3.1605    0.1811 H   0  0  0  0  0  0  0  0  0  0  0  0
   12.7018    8.3795    1.1024 H   0  0  0  0  0  0  0  0  0  0  0  0
   13.9438    9.4605    2.9645 H   0  0  0  0  0  0  0  0  0  0  0  0
   15.8035    8.2427    4.0785 H   0  0  0  0  0  0  0  0  0  0  0  0
   16.4254    5.9720    3.3338 H   0  0  0  0  0  0  0  0  0  0  0  0
   16.4102    4.3676    1.6328 H   0  0  0  0  0  0  0  0  0  0  0  0
   15.4505    4.5666    0.1864 H   0  0  0  0  0  0  0  0  0  0  0  0
   14.4099    3.3436    2.8096 H   0  0  0  0  0  0  0  0  0  0  0  0
    9.1394    2.8125   -2.3717 H   0  0  0  0  0  0  0  0  0  0  0  0
    6.8904    3.6774   -2.9308 H   0  0  0  0  0  0  0  0  0  0  0  0
    5.7670    5.2854   -1.4024 H   0  0  0  0  0  0  0  0  0  0  0  0
    6.8824    6.0376    0.6826 H   0  0  0  0  0  0  0  0  0  0  0  0
   11.1899    2.8251   -0.5555 H   0  0  0  0  0  0  0  0  0  0  0  0
   14.5675    1.1329    1.6093 H   0  0  0  0  0  0  0  0  0  0  0  0
   15.3662    1.9400    0.2639 H   0  0  0  0  0  0  0  0  0  0  0  0
  1  5  2  0  0  0  0
  1 14  1  0  0  0  0
  1 27  1  0  0  0  0
  2 16  1  0  0  0  0
  2 25  1  0  0  0  0
  2 28  1  0  0  0  0
  3 25  2  0  0  0  0
  4  6  2  0  0  0  0
  4  8  1  0  0  0  0
  4 11  1  0  0  0  0
  4 13  1  0  0  0  0
  5  7  1  0  0  0  0
  5 29  1  0  0  0  0
  7 10  2  0  0  0  0
  7 30  1  0  0  0  0
  8 26  1  0  0  0  0
  9 21  1  0  0  0  0
  9 24  1  0  0  0  0
 10 12  1  0  0  0  0
 10 31  1  0  0  0  0
 12 14  2  0  0  0  0
 12 32  1  0  0  0  0
 14 15  1  0  0  0  0
 15 16  1  0  0  0  0
 15 33  1  0  0  0  0
 15 34  1  0  0  0  0
 16 26  1  0  0  0  0
 16 35  1  1  0  0  0
 17 18  2  0  0  0  0
 17 22  1  0  0  0  0
 17 36  1  0  0  0  0
 18 19  1  0  0  0  0
 18 37  1  0  0  0  0
 19 20  2  0  0  0  0
 19 38  1  0  0  0  0
 20 21  1  0  0  0  0
 20 39  1  0  0  0  0
 21 22  2  0  0  0  0
 22 23  1  0  0  0  0
 23 24  2  0  0  0  0
 23 40  1  0  0  0  0
 24 25  1  0  0  0  0
 26 41  1  0  0  0  0
 26 42  1  0  0  0  0
M  END
$$$$
