JDR
 OpenBabel04091913433D

 36 37  0  0  0  0  0  0  0  0999 V2000
   -3.9599   10.3229   12.1102 N   0  0  0  0  0  0  0  0  0  0  0  0
   -3.1653    9.6229   12.9345 C   0  0  0  0  0  0  0  0  0  0  0  0
   -3.3246    8.3183   13.2012 N   0  0  0  0  0  0  0  0  0  0  0  0
   -4.3666    7.6615   12.6290 C   0  0  0  0  0  0  0  0  0  0  0  0
   -5.2474    8.3089   11.7710 C   0  0  0  0  0  0  0  0  0  0  0  0
   -4.9859    9.6480   11.5587 C   0  0  0  0  0  0  0  0  0  0  0  0
   -4.5812    6.3408   12.9864 N   0  0  0  0  0  0  0  0  0  0  0  0
   -4.3633    4.4576   14.5405 C   0  0  0  0  0  0  0  0  0  0  0  0
   -5.7355    4.4274   14.8622 C   0  0  0  0  0  0  0  0  0  0  0  0
   -6.2804    3.3346   15.5491 C   0  0  0  0  0  0  0  0  0  0  0  0
   -5.4463    2.2813   15.9414 C   0  0  0  0  0  0  0  0  0  0  0  0
   -4.0833    2.3068   15.6513 C   0  0  0  0  0  0  0  0  0  0  0  0
   -3.5519    3.3897   14.9549 C   0  0  0  0  0  0  0  0  0  0  0  0
   -6.1007    0.8994   16.8399 S   0  0  0  0  0  0  0  0  0  0  0  0
   -5.5282    0.9354   18.1659 O   0  0  0  0  0  0  0  0  0  0  0  0
   -7.5258    0.8394   16.6179 O   0  0  0  0  0  0  0  0  0  0  0  0
   -5.4552   -0.4196   16.0591 N   0  0  0  0  0  0  0  0  0  0  0  0
   -6.3832    7.6322   11.1347 C   0  0  0  0  0  0  0  0  0  0  0  0
   -6.8160    6.5524   11.5353 O   0  0  0  0  0  0  0  0  0  0  0  0
   -5.9652   10.6448   10.5512 Cl  0  0  0  0  0  0  0  0  0  0  0  0
   -1.8086   10.5412   13.6244 S   0  0  0  0  0  0  0  0  0  0  0  0
   -1.1741    9.4514   14.9291 C   0  0  0  0  0  0  0  0  0  0  0  0
   -3.6871    5.6305   13.8535 C   0  0  0  0  0  0  0  0  0  0  0  0
   -5.2550    5.8043   12.4373 H   0  0  0  0  0  0  0  0  0  0  0  0
   -6.3873    5.2568   14.5894 H   0  0  0  0  0  0  0  0  0  0  0  0
   -7.3417    3.3243   15.7934 H   0  0  0  0  0  0  0  0  0  0  0  0
   -3.4276    1.5093   15.9827 H   0  0  0  0  0  0  0  0  0  0  0  0
   -2.4838    3.4105   14.7518 H   0  0  0  0  0  0  0  0  0  0  0  0
   -5.6562   -1.3287   16.4622 H   0  0  0  0  0  0  0  0  0  0  0  0
   -4.8336   -0.3213   15.2651 H   0  0  0  0  0  0  0  0  0  0  0  0
   -6.8353    8.0983   10.2444 H   0  0  0  0  0  0  0  0  0  0  0  0
   -0.3334    9.9626   15.4139 H   0  0  0  0  0  0  0  0  0  0  0  0
   -0.7951    8.5093   14.5248 H   0  0  0  0  0  0  0  0  0  0  0  0
   -1.9261    9.2550   15.6979 H   0  0  0  0  0  0  0  0  0  0  0  0
   -3.2956    6.2807   14.6507 H   0  0  0  0  0  0  0  0  0  0  0  0
   -2.8376    5.2511   13.2751 H   0  0  0  0  0  0  0  0  0  0  0  0
  1  2  2  0  0  0  0
  1  6  1  0  0  0  0
  2  3  1  0  0  0  0
  2 21  1  0  0  0  0
  3  4  2  0  0  0  0
  4  5  1  0  0  0  0
  4  7  1  0  0  0  0
  5  6  2  0  0  0  0
  5 18  1  0  0  0  0
  6 20  1  0  0  0  0
  7 23  1  0  0  0  0
  7 24  1  0  0  0  0
  8  9  2  0  0  0  0
  8 13  1  0  0  0  0
  8 23  1  0  0  0  0
  9 10  1  0  0  0  0
  9 25  1  0  0  0  0
 10 11  2  0  0  0  0
 10 26  1  0  0  0  0
 11 12  1  0  0  0  0
 11 14  1  0  0  0  0
 12 13  2  0  0  0  0
 12 27  1  0  0  0  0
 13 28  1  0  0  0  0
 14 15  2  0  0  0  0
 14 16  2  0  0  0  0
 14 17  1  0  0  0  0
 17 29  1  0  0  0  0
 17 30  1  0  0  0  0
 18 19  2  0  0  0  0
 18 31  1  0  0  0  0
 21 22  1  0  0  0  0
 22 32  1  0  0  0  0
 22 33  1  0  0  0  0
 22 34  1  0  0  0  0
 23 35  1  0  0  0  0
 23 36  1  0  0  0  0
M  END
$$$$
