JG1
 OpenBabel04091914423D

 46 48  0  0  0  0  0  0  0  0999 V2000
   32.5825  -38.9013    7.6390 N   0  0  0  0  0  0  0  0  0  0  0  0
   33.3862  -39.9672    7.8835 C   0  0  0  0  0  0  0  0  0  0  0  0
   32.9194  -41.1108    8.5332 C   0  0  0  0  0  0  0  0  0  0  0  0
   31.5861  -41.1645    8.9338 C   0  0  0  0  0  0  0  0  0  0  0  0
   30.7537  -40.0789    8.6877 C   0  0  0  0  0  0  0  0  0  0  0  0
   31.2947  -38.9790    8.0419 C   0  0  0  0  0  0  0  0  0  0  0  0
   34.7731  -39.8529    7.4259 C   0  0  0  0  0  0  0  0  0  0  0  0
   35.4206  -38.8515    6.8533 N   0  0  0  0  0  0  0  0  0  0  0  0
   36.7208  -39.2718    6.6482 N   0  0  0  0  0  0  0  0  0  0  0  0
   36.7829  -40.5100    7.0948 C   0  0  0  0  0  0  0  0  0  0  0  0
   35.5872  -40.9501    7.6017 O   0  0  0  0  0  0  0  0  0  0  0  0
   37.9457  -41.3780    7.1089 C   0  0  0  0  0  0  0  0  0  0  0  0
   39.2728  -40.7311    6.7205 C   0  0  0  0  0  0  0  0  0  0  0  0
   37.8917  -42.5628    7.4567 O   0  0  0  0  0  0  0  0  0  0  0  0
   40.4046  -41.7466    6.5270 C   0  0  0  0  0  0  0  0  0  0  0  0
   41.7273  -41.0433    6.2074 C   0  0  0  0  0  0  0  0  0  0  0  0
   42.8644  -42.0076    5.8696 C   0  0  0  0  0  0  0  0  0  0  0  0
   43.2079  -42.9727    7.0001 C   0  0  0  0  0  0  0  0  0  0  0  0
   44.3608  -43.8911    6.5831 C   0  0  0  0  0  0  0  0  0  0  0  0
   44.7292  -44.9056    7.6379 C   0  0  0  0  0  0  0  0  0  0  0  0
   44.9968  -46.2302    7.2674 C   0  0  0  0  0  0  0  0  0  0  0  0
   45.3522  -47.1727    8.2333 C   0  0  0  0  0  0  0  0  0  0  0  0
   45.4466  -46.8026    9.5715 C   0  0  0  0  0  0  0  0  0  0  0  0
   45.1949  -45.4872    9.9510 C   0  0  0  0  0  0  0  0  0  0  0  0
   44.8520  -44.5418    8.9871 C   0  0  0  0  0  0  0  0  0  0  0  0
   33.5763  -41.9528    8.7272 H   0  0  0  0  0  0  0  0  0  0  0  0
   31.1993  -42.0501    9.4332 H   0  0  0  0  0  0  0  0  0  0  0  0
   29.7126  -40.0929    8.9877 H   0  0  0  0  0  0  0  0  0  0  0  0
   30.6830  -38.1064    7.8262 H   0  0  0  0  0  0  0  0  0  0  0  0
   39.5493  -40.0340    7.5210 H   0  0  0  0  0  0  0  0  0  0  0  0
   39.1392  -40.1659    5.7937 H   0  0  0  0  0  0  0  0  0  0  0  0
   40.1480  -42.4397    5.7166 H   0  0  0  0  0  0  0  0  0  0  0  0
   40.5134  -42.3474    7.4373 H   0  0  0  0  0  0  0  0  0  0  0  0
   42.0227  -40.4090    7.0523 H   0  0  0  0  0  0  0  0  0  0  0  0
   41.5855  -40.3784    5.3466 H   0  0  0  0  0  0  0  0  0  0  0  0
   43.7577  -41.4176    5.6273 H   0  0  0  0  0  0  0  0  0  0  0  0
   42.6048  -42.5763    4.9696 H   0  0  0  0  0  0  0  0  0  0  0  0
   42.3413  -43.5896    7.2640 H   0  0  0  0  0  0  0  0  0  0  0  0
   43.4719  -42.3908    7.8905 H   0  0  0  0  0  0  0  0  0  0  0  0
   45.2505  -43.2973    6.3421 H   0  0  0  0  0  0  0  0  0  0  0  0
   44.0674  -44.4137    5.6630 H   0  0  0  0  0  0  0  0  0  0  0  0
   44.9239  -46.5374    6.2271 H   0  0  0  0  0  0  0  0  0  0  0  0
   45.5537  -48.1994    7.9370 H   0  0  0  0  0  0  0  0  0  0  0  0
   45.7163  -47.5395   10.3233 H   0  0  0  0  0  0  0  0  0  0  0  0
   45.2649  -45.1924   10.9931 H   0  0  0  0  0  0  0  0  0  0  0  0
   44.6737  -43.5180    9.3062 H   0  0  0  0  0  0  0  0  0  0  0  0
  1  2  2  0  0  0  0
  1  6  1  0  0  0  0
  2  3  1  0  0  0  0
  2  7  1  0  0  0  0
  3  4  2  0  0  0  0
  3 26  1  0  0  0  0
  4  5  1  0  0  0  0
  4 27  1  0  0  0  0
  5  6  2  0  0  0  0
  5 28  1  0  0  0  0
  6 29  1  0  0  0  0
  7  8  2  0  0  0  0
  7 11  1  0  0  0  0
  8  9  1  0  0  0  0
  9 10  2  0  0  0  0
 10 11  1  0  0  0  0
 10 12  1  0  0  0  0
 12 13  1  0  0  0  0
 12 14  2  0  0  0  0
 13 15  1  0  0  0  0
 13 30  1  0  0  0  0
 13 31  1  0  0  0  0
 15 16  1  0  0  0  0
 15 32  1  0  0  0  0
 15 33  1  0  0  0  0
 16 17  1  0  0  0  0
 16 34  1  0  0  0  0
 16 35  1  0  0  0  0
 17 18  1  0  0  0  0
 17 36  1  0  0  0  0
 17 37  1  0  0  0  0
 18 19  1  0  0  0  0
 18 38  1  0  0  0  0
 18 39  1  0  0  0  0
 19 20  1  0  0  0  0
 19 40  1  0  0  0  0
 19 41  1  0  0  0  0
 20 21  2  0  0  0  0
 20 25  1  0  0  0  0
 21 22  1  0  0  0  0
 21 42  1  0  0  0  0
 22 23  2  0  0  0  0
 22 43  1  0  0  0  0
 23 24  1  0  0  0  0
 23 44  1  0  0  0  0
 24 25  2  0  0  0  0
 24 45  1  0  0  0  0
 25 46  1  0  0  0  0
M  END
$$$$
