JRG
 OpenBabel04091915163D

 54 54  0  0  1  0  0  0  0  0999 V2000
   20.2125   45.6618   45.8709 C   0  0  0  0  0  0  0  0  0  0  0  0
   18.5809   45.3370   44.0209 N   0  0  0  0  0  0  0  0  0  0  0  0
   19.6627   46.7949   46.0713 O   0  0  0  0  0  0  0  0  0  0  0  0
   19.9640   45.0574   44.4561 C   0  0  1  0  0  0  0  0  0  0  0  0
   20.9683   45.6547   43.4496 C   0  0  0  0  0  0  0  0  0  0  0  0
   13.9040   48.9197   40.1584 C   0  0  0  0  0  0  0  0  0  0  0  0
   17.8114   45.7241   40.2815 O   0  0  0  0  0  0  0  0  0  0  0  0
   18.4380   43.5370   42.6309 O   0  0  0  0  0  0  0  0  0  0  0  0
   22.3650   49.8751   44.0384 O   0  0  0  0  0  0  0  0  0  0  0  0
   16.8484   43.8830   39.3236 O   0  0  0  0  0  0  0  0  0  0  0  0
   23.6265   50.2757   51.0267 I   0  0  0  0  0  0  0  0  0  0  0  0
   23.3949   50.9438   48.0616 C   0  0  0  0  0  0  0  0  0  0  0  0
   23.5256   48.5827   48.4961 C   0  0  0  0  0  0  0  0  0  0  0  0
   23.2593   50.6734   46.6786 C   0  0  0  0  0  0  0  0  0  0  0  0
   23.4077   48.3301   47.1077 C   0  0  0  0  0  0  0  0  0  0  0  0
   23.3985   45.9448   42.7063 C   0  0  0  0  0  0  0  0  0  0  0  0
   22.4312   45.2465   43.6764 C   0  0  0  0  0  0  0  0  0  0  0  0
   23.3765   47.4845   42.7845 C   0  0  0  0  0  0  0  0  0  0  0  0
   14.8094   46.6105   41.1307 C   0  0  0  0  0  0  0  0  0  0  0  0
   14.7617   45.0973   41.1999 C   0  0  0  0  0  0  0  0  0  0  0  0
   23.6473   47.9706   44.1377 N   0  0  0  0  0  0  0  0  0  0  0  0
   16.6755   44.9941   42.8102 N   0  0  0  0  0  0  0  0  0  0  0  0
   13.2714   47.2592   40.4099 S   0  0  0  0  0  0  0  0  0  0  0  0
   17.0538   44.7062   40.2664 C   0  0  0  0  0  0  0  0  0  0  0  0
   17.9415   44.5663   43.1074 C   0  0  0  0  0  0  0  0  0  0  0  0
   23.0304   49.0871   44.7022 C   0  0  0  0  0  0  0  0  0  0  0  0
   23.5058   49.8912   48.9652 C   0  0  0  0  0  0  0  0  0  0  0  0
   23.2659   49.3533   46.1790 C   0  0  0  0  0  0  0  0  0  0  0  0
   16.1320   44.5015   41.5358 C   0  0  2  0  0  0  0  0  0  0  0  0
   20.8993   44.9680   46.6695 O   0  0  0  0  0  0  0  0  0  0  0  0
   18.2424   46.2463   44.2901 H   0  0  0  0  0  0  0  0  0  0  0  0
   20.0819   43.9682   44.4912 H   0  0  0  0  0  0  0  0  0  0  0  0
   20.8825   46.7457   43.4869 H   0  0  0  0  0  0  0  0  0  0  0  0
   20.6937   45.3595   42.4282 H   0  0  0  0  0  0  0  0  0  0  0  0
   13.1367   49.5412   39.6902 H   0  0  0  0  0  0  0  0  0  0  0  0
   14.7854   48.8891   39.5126 H   0  0  0  0  0  0  0  0  0  0  0  0
   14.1756   49.3437   41.1281 H   0  0  0  0  0  0  0  0  0  0  0  0
   23.3569   51.9760   48.4138 H   0  0  0  0  0  0  0  0  0  0  0  0
   23.5795   47.7485   49.1837 H   0  0  0  0  0  0  0  0  0  0  0  0
   23.1056   51.5057   45.9898 H   0  0  0  0  0  0  0  0  0  0  0  0
   23.3526   47.2748   46.7988 H   0  0  0  0  0  0  0  0  0  0  0  0
   23.1746   45.6254   41.6762 H   0  0  0  0  0  0  0  0  0  0  0  0
   24.4191   45.5915   42.9139 H   0  0  0  0  0  0  0  0  0  0  0  0
   22.5325   44.1611   43.5510 H   0  0  0  0  0  0  0  0  0  0  0  0
   22.7385   45.4708   44.7031 H   0  0  0  0  0  0  0  0  0  0  0  0
   22.4244   47.8748   42.4122 H   0  0  0  0  0  0  0  0  0  0  0  0
   24.1533   47.8731   42.1112 H   0  0  0  0  0  0  0  0  0  0  0  0
   15.6484   46.9542   40.5217 H   0  0  0  0  0  0  0  0  0  0  0  0
   14.9160   47.0425   42.1309 H   0  0  0  0  0  0  0  0  0  0  0  0
   14.4257   44.6926   40.2361 H   0  0  0  0  0  0  0  0  0  0  0  0
   14.0223   44.7941   41.9514 H   0  0  0  0  0  0  0  0  0  0  0  0
   24.3042   47.4415   44.6933 H   0  0  0  0  0  0  0  0  0  0  0  0
   16.4099   45.8938   43.1806 H   0  0  0  0  0  0  0  0  0  0  0  0
   15.9977   43.4272   41.6857 H   0  0  0  0  0  0  0  0  0  0  0  0
  1  3  2  0  0  0  0
  1  4  1  0  0  0  0
  1 30  1  0  0  0  0
  2  4  1  0  0  0  0
  2 25  1  0  0  0  0
  2 31  1  0  0  0  0
  4  5  1  0  0  0  0
  4 32  1  1  0  0  0
  5 17  1  0  0  0  0
  5 33  1  0  0  0  0
  5 34  1  0  0  0  0
  6 23  1  0  0  0  0
  6 35  1  0  0  0  0
  6 36  1  0  0  0  0
  6 37  1  0  0  0  0
  7 24  2  0  0  0  0
  8 25  2  0  0  0  0
  9 26  2  0  0  0  0
 10 24  1  0  0  0  0
 11 27  1  0  0  0  0
 12 14  2  0  0  0  0
 12 27  1  0  0  0  0
 12 38  1  0  0  0  0
 13 15  1  0  0  0  0
 13 27  2  0  0  0  0
 13 39  1  0  0  0  0
 14 28  1  0  0  0  0
 14 40  1  0  0  0  0
 15 28  2  0  0  0  0
 15 41  1  0  0  0  0
 16 17  1  0  0  0  0
 16 18  1  0  0  0  0
 16 42  1  0  0  0  0
 16 43  1  0  0  0  0
 17 44  1  0  0  0  0
 17 45  1  0  0  0  0
 18 21  1  0  0  0  0
 18 46  1  0  0  0  0
 18 47  1  0  0  0  0
 19 20  1  0  0  0  0
 19 23  1  0  0  0  0
 19 48  1  0  0  0  0
 19 49  1  0  0  0  0
 20 29  1  0  0  0  0
 20 50  1  0  0  0  0
 20 51  1  0  0  0  0
 21 26  1  0  0  0  0
 21 52  1  0  0  0  0
 22 25  1  0  0  0  0
 22 29  1  0  0  0  0
 22 53  1  0  0  0  0
 24 29  1  0  0  0  0
 26 28  1  0  0  0  0
 29 54  1  1  0  0  0
M  END
$$$$
