JUG
 OpenBabel04091910593D

 18 19  0  0  0  0  0  0  0  0999 V2000
   21.1482   12.7591  -12.5871 O   0  0  0  0  0  0  0  0  0  0  0  0
   20.6232   13.8324  -12.3002 C   0  0  0  0  0  0  0  0  0  0  0  0
   21.4747   15.0096  -12.0942 C   0  0  0  0  0  0  0  0  0  0  0  0
   20.9449   16.1952  -11.7982 C   0  0  0  0  0  0  0  0  0  0  0  0
   19.4955   16.4257  -11.6531 C   0  0  0  0  0  0  0  0  0  0  0  0
   19.1914   17.5841  -11.3864 O   0  0  0  0  0  0  0  0  0  0  0  0
   18.5762   15.2454  -11.8349 C   0  0  0  0  0  0  0  0  0  0  0  0
   19.1616   13.9949  -12.1468 C   0  0  0  0  0  0  0  0  0  0  0  0
   18.3728   12.8521  -12.3209 C   0  0  0  0  0  0  0  0  0  0  0  0
   17.0012   12.9517  -12.1801 C   0  0  0  0  0  0  0  0  0  0  0  0
   16.4281   14.1870  -11.8748 C   0  0  0  0  0  0  0  0  0  0  0  0
   17.1624   15.3781  -11.6943 C   0  0  0  0  0  0  0  0  0  0  0  0
   16.5304   16.4515  -11.4247 O   0  0  0  0  0  0  0  0  0  0  0  0
   22.5418   14.8736  -12.1957 H   0  0  0  0  0  0  0  0  0  0  0  0
   21.5547   17.0768  -11.6433 H   0  0  0  0  0  0  0  0  0  0  0  0
   18.8221   11.8934  -12.5641 H   0  0  0  0  0  0  0  0  0  0  0  0
   16.3637   12.0855  -12.3067 H   0  0  0  0  0  0  0  0  0  0  0  0
   15.3440   14.2495  -11.7671 H   0  0  0  0  0  0  0  0  0  0  0  0
  1  2  2  0  0  0  0
  2  3  1  0  0  0  0
  2  8  1  0  0  0  0
  3  4  2  0  0  0  0
  3 14  1  0  0  0  0
  4  5  1  0  0  0  0
  4 15  1  0  0  0  0
  5  6  2  0  0  0  0
  5  7  1  0  0  0  0
  7  8  2  0  0  0  0
  7 12  1  0  0  0  0
  8  9  1  0  0  0  0
  9 10  2  0  0  0  0
  9 16  1  0  0  0  0
 10 11  1  0  0  0  0
 10 17  1  0  0  0  0
 11 12  2  0  0  0  0
 11 18  1  0  0  0  0
 12 13  1  0  0  0  0
M  END
$$$$
