JZP
 OpenBabel04091913253D

 80 84  0  0  1  0  0  0  0  0999 V2000
   19.1093   22.0861   20.4759 S   0  0  0  0  0  0  0  0  0  0  0  0
   12.3252   17.6596   21.3075 Cl  0  0  0  0  0  0  0  0  0  0  0  0
   14.1548   21.2051   17.7672 N   0  0  0  0  0  0  0  0  0  0  0  0
   12.4944   19.2357   18.6732 O   0  0  0  0  0  0  0  0  0  0  0  0
   10.9784   18.8435   16.0686 Cl  0  0  0  0  0  0  0  0  0  0  0  0
   17.4068   23.6089   19.1740 N   0  0  0  0  0  0  0  0  0  0  0  0
   16.3481   25.2230   17.9517 O   0  0  0  0  0  0  0  0  0  0  0  0
   19.9409   25.5839   17.5638 N   0  0  0  0  0  0  0  0  0  0  0  0
   19.3630   23.4196   17.1465 O   0  0  0  0  0  0  0  0  0  0  0  0
   13.8904   24.1848   18.6283 O   0  0  0  0  0  0  0  0  0  0  0  0
   21.6197   27.5058   17.8458 O   0  0  0  0  0  0  0  0  0  0  0  0
   15.9756   19.9184   18.2225 O   0  0  0  0  0  0  0  0  0  0  0  0
   14.7615   20.0345   18.1430 C   0  0  0  0  0  0  0  0  0  0  0  0
   14.9334   22.3810   17.3691 C   0  0  2  0  0  0  0  0  0  0  0  0
   15.0240   23.3232   18.5686 C   0  0  1  0  0  0  0  0  0  0  0  0
   14.3427   23.0346   16.1147 C   0  0  0  0  0  0  0  0  0  0  0  0
   16.3118   24.1214   18.5110 C   0  0  0  0  0  0  0  0  0  0  0  0
   18.6362   24.3926   19.2334 C   0  0  1  0  0  0  0  0  0  0  0  0
   19.5556   23.8310   20.3208 C   0  0  0  0  0  0  0  0  0  0  0  0
   17.4652   22.3055   19.8027 C   0  0  0  0  0  0  0  0  0  0  0  0
   19.3024   24.3982   17.8475 C   0  0  0  0  0  0  0  0  0  0  0  0
   13.8455   18.8474   18.4181 C   0  0  0  0  0  0  0  0  0  0  0  0
   13.9640   22.0009   15.0833 C   0  0  0  0  0  0  0  0  0  0  0  0
   14.9474   21.2509   14.4292 C   0  0  0  0  0  0  0  0  0  0  0  0
   14.5825   20.2754   13.5060 C   0  0  0  0  0  0  0  0  0  0  0  0
   13.2352   20.0379   13.2357 C   0  0  0  0  0  0  0  0  0  0  0  0
   12.2539   20.7847   13.8835 C   0  0  0  0  0  0  0  0  0  0  0  0
   12.6135   21.7543   14.8146 C   0  0  0  0  0  0  0  0  0  0  0  0
   21.0454   23.9294   20.0549 C   0  0  0  0  0  0  0  0  0  0  0  0
   19.2349   24.5224   21.6385 C   0  0  0  0  0  0  0  0  0  0  0  0
   20.7894   25.7265   16.4044 C   0  0  1  0  0  0  0  0  0  0  0  0
   20.0727   26.3036   15.2258 C   0  0  0  0  0  0  0  0  0  0  0  0
   18.8940   25.8249   14.6678 C   0  0  0  0  0  0  0  0  0  0  0  0
   18.3900   26.5068   13.5567 C   0  0  0  0  0  0  0  0  0  0  0  0
   21.9125   26.7656   16.6495 C   0  0  1  0  0  0  0  0  0  0  0  0
   20.7477   27.4218   14.6942 C   0  0  0  0  0  0  0  0  0  0  0  0
   20.2488   28.0981   13.5889 C   0  0  0  0  0  0  0  0  0  0  0  0
   19.0581   27.6225   13.0298 C   0  0  0  0  0  0  0  0  0  0  0  0
   21.9972   27.7421   15.4543 C   0  0  0  0  0  0  0  0  0  0  0  0
    9.7350   16.0692   18.6803 C   0  0  0  0  0  0  0  0  0  0  0  0
   10.4818   16.3299   19.8253 C   0  0  0  0  0  0  0  0  0  0  0  0
   11.4150   17.3771   19.8325 C   0  0  0  0  0  0  0  0  0  0  0  0
   11.6109   18.1625   18.6702 C   0  0  0  0  0  0  0  0  0  0  0  0
   10.8232   17.9085   17.5221 C   0  0  0  0  0  0  0  0  0  0  0  0
    9.8872   16.8537   17.5123 C   0  0  0  0  0  0  0  0  0  0  0  0
   13.1386   21.2588   17.7805 H   0  0  0  0  0  0  0  0  0  0  0  0
   19.7632   26.4131   18.1216 H   0  0  0  0  0  0  0  0  0  0  0  0
   14.0223   24.7928   19.3813 H   0  0  0  0  0  0  0  0  0  0  0  0
   22.3318   28.1579   17.9664 H   0  0  0  0  0  0  0  0  0  0  0  0
   15.9411   22.0363   17.1059 H   0  0  0  0  0  0  0  0  0  0  0  0
   15.0241   22.7261   19.4854 H   0  0  0  0  0  0  0  0  0  0  0  0
   15.0792   23.7176   15.6732 H   0  0  0  0  0  0  0  0  0  0  0  0
   13.4524   23.6207   16.3700 H   0  0  0  0  0  0  0  0  0  0  0  0
   18.3727   25.4258   19.4793 H   0  0  0  0  0  0  0  0  0  0  0  0
   16.7360   22.2473   20.6185 H   0  0  0  0  0  0  0  0  0  0  0  0
   17.2757   21.5181   19.0831 H   0  0  0  0  0  0  0  0  0  0  0  0
   13.9163   18.1914   17.5421 H   0  0  0  0  0  0  0  0  0  0  0  0
   14.2760   18.3457   19.2933 H   0  0  0  0  0  0  0  0  0  0  0  0
   15.9993   21.4289   14.6430 H   0  0  0  0  0  0  0  0  0  0  0  0
   15.3483   19.7022   12.9918 H   0  0  0  0  0  0  0  0  0  0  0  0
   12.9504   19.2767   12.5185 H   0  0  0  0  0  0  0  0  0  0  0  0
   11.2022   20.5938   13.6820 H   0  0  0  0  0  0  0  0  0  0  0  0
   11.8437   22.3197   15.3341 H   0  0  0  0  0  0  0  0  0  0  0  0
   21.3490   24.9788   19.9765 H   0  0  0  0  0  0  0  0  0  0  0  0
   21.3092   23.4170   19.1245 H   0  0  0  0  0  0  0  0  0  0  0  0
   21.6129   23.4683   20.8718 H   0  0  0  0  0  0  0  0  0  0  0  0
   19.5163   25.5794   21.5777 H   0  0  0  0  0  0  0  0  0  0  0  0
   19.7945   24.0576   22.4562 H   0  0  0  0  0  0  0  0  0  0  0  0
   18.1631   24.4594   21.8551 H   0  0  0  0  0  0  0  0  0  0  0  0
   21.2283   24.7547   16.1469 H   0  0  0  0  0  0  0  0  0  0  0  0
   18.3729   24.9605   15.0754 H   0  0  0  0  0  0  0  0  0  0  0  0
   17.4674   26.1656   13.0987 H   0  0  0  0  0  0  0  0  0  0  0  0
   22.8703   26.2465   16.7767 H   0  0  0  0  0  0  0  0  0  0  0  0
   20.7484   28.9627   13.1708 H   0  0  0  0  0  0  0  0  0  0  0  0
   18.6333   28.1250   12.1637 H   0  0  0  0  0  0  0  0  0  0  0  0
   22.8946   27.5497   14.8562 H   0  0  0  0  0  0  0  0  0  0  0  0
   22.0098   28.7832   15.7967 H   0  0  0  0  0  0  0  0  0  0  0  0
    9.0070   15.2530   18.6664 H   0  0  0  0  0  0  0  0  0  0  0  0
   10.3229   15.7035   20.7032 H   0  0  0  0  0  0  0  0  0  0  0  0
    9.2828   16.6316   16.6244 H   0  0  0  0  0  0  0  0  0  0  0  0
  1 19  1  0  0  0  0
  1 20  1  0  0  0  0
  2 42  1  0  0  0  0
  3 13  1  0  0  0  0
  3 14  1  0  0  0  0
  3 46  1  0  0  0  0
  4 22  1  0  0  0  0
  4 43  1  0  0  0  0
  5 44  1  0  0  0  0
  6 17  1  0  0  0  0
  6 18  1  0  0  0  0
  6 20  1  0  0  0  0
  7 17  2  0  0  0  0
  8 21  1  0  0  0  0
  8 31  1  0  0  0  0
  8 47  1  0  0  0  0
  9 21  2  0  0  0  0
 10 15  1  0  0  0  0
 10 48  1  0  0  0  0
 11 35  1  0  0  0  0
 11 49  1  0  0  0  0
 12 13  2  0  0  0  0
 13 22  1  0  0  0  0
 14 15  1  0  0  0  0
 14 16  1  0  0  0  0
 14 50  1  6  0  0  0
 15 17  1  0  0  0  0
 15 51  1  1  0  0  0
 16 23  1  0  0  0  0
 16 52  1  0  0  0  0
 16 53  1  0  0  0  0
 18 19  1  0  0  0  0
 18 21  1  0  0  0  0
 18 54  1  1  0  0  0
 19 29  1  0  0  0  0
 19 30  1  0  0  0  0
 20 55  1  0  0  0  0
 20 56  1  0  0  0  0
 22 57  1  0  0  0  0
 22 58  1  0  0  0  0
 23 24  2  0  0  0  0
 23 28  1  0  0  0  0
 24 25  1  0  0  0  0
 24 59  1  0  0  0  0
 25 26  2  0  0  0  0
 25 60  1  0  0  0  0
 26 27  1  0  0  0  0
 26 61  1  0  0  0  0
 27 28  2  0  0  0  0
 27 62  1  0  0  0  0
 28 63  1  0  0  0  0
 29 64  1  0  0  0  0
 29 65  1  0  0  0  0
 29 66  1  0  0  0  0
 30 67  1  0  0  0  0
 30 68  1  0  0  0  0
 30 69  1  0  0  0  0
 31 32  1  0  0  0  0
 31 35  1  0  0  0  0
 31 70  1  6  0  0  0
 32 33  2  0  0  0  0
 32 36  1  0  0  0  0
 33 34  1  0  0  0  0
 33 71  1  0  0  0  0
 34 38  2  0  0  0  0
 34 72  1  0  0  0  0
 35 39  1  0  0  0  0
 35 73  1  1  0  0  0
 36 37  2  0  0  0  0
 36 39  1  0  0  0  0
 37 38  1  0  0  0  0
 37 74  1  0  0  0  0
 38 75  1  0  0  0  0
 39 76  1  0  0  0  0
 39 77  1  0  0  0  0
 40 41  2  0  0  0  0
 40 45  1  0  0  0  0
 40 78  1  0  0  0  0
 41 42  1  0  0  0  0
 41 79  1  0  0  0  0
 42 43  2  0  0  0  0
 43 44  1  0  0  0  0
 44 45  2  0  0  0  0
 45 80  1  0  0  0  0
M  END
$$$$
