JZQ
 OpenBabel04091913263D

 80 84  0  0  1  0  0  0  0  0999 V2000
   20.9232   27.7663   13.9495 F   0  0  0  0  0  0  0  0  0  0  0  0
   14.4883   22.1739   13.9313 S   0  0  0  0  0  0  0  0  0  0  0  0
   21.8326   26.6141   18.4539 F   0  0  0  0  0  0  0  0  0  0  0  0
   18.3712   24.8385   17.3076 N   0  0  0  0  0  0  0  0  0  0  0  0
   20.1196   26.5537   16.3357 O   0  0  0  0  0  0  0  0  0  0  0  0
   14.5554   22.9520   16.4556 N   0  0  0  0  0  0  0  0  0  0  0  0
   14.2349   23.2757   18.6912 O   0  0  0  0  0  0  0  0  0  0  0  0
   12.7420   20.0728   17.6707 N   0  0  0  0  0  0  0  0  0  0  0  0
   14.9240   20.1398   16.9692 O   0  0  0  0  0  0  0  0  0  0  0  0
   15.6114   25.7040   18.5880 O   0  0  0  0  0  0  0  0  0  0  0  0
   10.2980   19.1074   18.0109 O   0  0  0  0  0  0  0  0  0  0  0  0
   18.6116   23.4139   15.5314 O   0  0  0  0  0  0  0  0  0  0  0  0
   18.9539   24.4281   16.1333 C   0  0  0  0  0  0  0  0  0  0  0  0
   17.3381   24.0601   18.0089 C   0  0  2  0  0  0  0  0  0  0  0  0
   15.9466   24.6485   17.6812 C   0  0  1  0  0  0  0  0  0  0  0  0
   17.6434   24.0320   19.5257 C   0  0  0  0  0  0  0  0  0  0  0  0
   14.8654   23.5469   17.6655 C   0  0  0  0  0  0  0  0  0  0  0  0
   13.4460   21.9978   16.3921 C   0  0  1  0  0  0  0  0  0  0  0  0
   13.0042   21.7872   14.9187 C   0  0  0  0  0  0  0  0  0  0  0  0
   15.2377   23.1933   15.2042 C   0  0  0  0  0  0  0  0  0  0  0  0
   13.8237   20.6682   17.0677 C   0  0  0  0  0  0  0  0  0  0  0  0
   20.0914   25.3107   15.6316 C   0  0  0  0  0  0  0  0  0  0  0  0
   19.0040   23.4389   19.8289 C   0  0  0  0  0  0  0  0  0  0  0  0
   19.1915   22.0481   19.8307 C   0  0  0  0  0  0  0  0  0  0  0  0
   20.4592   21.5114   20.0469 C   0  0  0  0  0  0  0  0  0  0  0  0
   21.5544   22.3490   20.2595 C   0  0  0  0  0  0  0  0  0  0  0  0
   21.3770   23.7339   20.2555 C   0  0  0  0  0  0  0  0  0  0  0  0
   20.1123   24.2713   20.0478 C   0  0  0  0  0  0  0  0  0  0  0  0
   11.9081   22.7970   14.5520 C   0  0  0  0  0  0  0  0  0  0  0  0
   12.5359   20.3759   14.5398 C   0  0  0  0  0  0  0  0  0  0  0  0
   12.7316   18.7070   18.1142 C   0  0  1  0  0  0  0  0  0  0  0  0
   12.9124   18.5607   19.5959 C   0  0  0  0  0  0  0  0  0  0  0  0
   13.8437   19.1850   20.4117 C   0  0  0  0  0  0  0  0  0  0  0  0
   13.8679   18.8516   21.7654 C   0  0  0  0  0  0  0  0  0  0  0  0
   11.3176   18.0851   17.9130 C   0  0  1  0  0  0  0  0  0  0  0  0
   12.0231   17.6087   20.1113 C   0  0  0  0  0  0  0  0  0  0  0  0
   12.0529   17.2590   21.4498 C   0  0  0  0  0  0  0  0  0  0  0  0
   12.9803   17.8935   22.2801 C   0  0  0  0  0  0  0  0  0  0  0  0
   11.1422   17.0469   19.0350 C   0  0  0  0  0  0  0  0  0  0  0  0
   23.8115   28.4604   16.0372 C   0  0  0  0  0  0  0  0  0  0  0  0
   22.9603   28.4296   14.9303 C   0  0  0  0  0  0  0  0  0  0  0  0
   21.7315   27.7778   15.0192 C   0  0  0  0  0  0  0  0  0  0  0  0
   21.3426   27.1525   16.2012 C   0  0  0  0  0  0  0  0  0  0  0  0
   22.1918   27.1994   17.3028 C   0  0  0  0  0  0  0  0  0  0  0  0
   23.4259   27.8398   17.2267 C   0  0  0  0  0  0  0  0  0  0  0  0
   18.6584   25.7346   17.6919 H   0  0  0  0  0  0  0  0  0  0  0  0
   11.9451   20.6240   17.9684 H   0  0  0  0  0  0  0  0  0  0  0  0
   14.6453   25.8239   18.5337 H   0  0  0  0  0  0  0  0  0  0  0  0
    9.4353   18.6585   17.9805 H   0  0  0  0  0  0  0  0  0  0  0  0
   17.3919   23.0337   17.6249 H   0  0  0  0  0  0  0  0  0  0  0  0
   15.9650   25.1250   16.6982 H   0  0  0  0  0  0  0  0  0  0  0  0
   16.8777   23.4559   20.0603 H   0  0  0  0  0  0  0  0  0  0  0  0
   17.6102   25.0467   19.9462 H   0  0  0  0  0  0  0  0  0  0  0  0
   12.6163   22.4296   16.9692 H   0  0  0  0  0  0  0  0  0  0  0  0
   15.1102   24.2446   14.9304 H   0  0  0  0  0  0  0  0  0  0  0  0
   16.2949   22.9668   15.3089 H   0  0  0  0  0  0  0  0  0  0  0  0
   21.0202   24.7441   15.7773 H   0  0  0  0  0  0  0  0  0  0  0  0
   19.9190   25.4944   14.5655 H   0  0  0  0  0  0  0  0  0  0  0  0
   18.3512   21.3818   19.6492 H   0  0  0  0  0  0  0  0  0  0  0  0
   20.5967   20.4321   20.0384 H   0  0  0  0  0  0  0  0  0  0  0  0
   22.5399   21.9260   20.4125 H   0  0  0  0  0  0  0  0  0  0  0  0
   22.2321   24.3901   20.4055 H   0  0  0  0  0  0  0  0  0  0  0  0
   19.9975   25.3556   20.0338 H   0  0  0  0  0  0  0  0  0  0  0  0
   10.9875   22.5745   15.1044 H   0  0  0  0  0  0  0  0  0  0  0  0
   11.6616   22.7611   13.4842 H   0  0  0  0  0  0  0  0  0  0  0  0
   12.1949   23.8252   14.8003 H   0  0  0  0  0  0  0  0  0  0  0  0
   11.6371   20.0976   15.1011 H   0  0  0  0  0  0  0  0  0  0  0  0
   13.2988   19.6116   14.7300 H   0  0  0  0  0  0  0  0  0  0  0  0
   12.2788   20.3095   13.4752 H   0  0  0  0  0  0  0  0  0  0  0  0
   13.4930   18.1121   17.5967 H   0  0  0  0  0  0  0  0  0  0  0  0
   14.5398   19.9154   20.0075 H   0  0  0  0  0  0  0  0  0  0  0  0
   14.5854   19.3332   22.4247 H   0  0  0  0  0  0  0  0  0  0  0  0
   11.2125   17.6455   16.9155 H   0  0  0  0  0  0  0  0  0  0  0  0
   11.3757   16.5118   21.8507 H   0  0  0  0  0  0  0  0  0  0  0  0
   13.0190   17.6415   23.3368 H   0  0  0  0  0  0  0  0  0  0  0  0
   11.5251   16.0701   18.7234 H   0  0  0  0  0  0  0  0  0  0  0  0
   10.1037   16.9672   19.3683 H   0  0  0  0  0  0  0  0  0  0  0  0
   24.7692   28.9718   15.9757 H   0  0  0  0  0  0  0  0  0  0  0  0
   23.2431   28.9160   14.0012 H   0  0  0  0  0  0  0  0  0  0  0  0
   24.0741   27.8553   18.0977 H   0  0  0  0  0  0  0  0  0  0  0  0
  1 42  1  0  0  0  0
  2 19  1  0  0  0  0
  2 20  1  0  0  0  0
  3 44  1  0  0  0  0
  4 13  1  0  0  0  0
  4 14  1  0  0  0  0
  4 46  1  0  0  0  0
  5 22  1  0  0  0  0
  5 43  1  0  0  0  0
  6 17  1  0  0  0  0
  6 18  1  0  0  0  0
  6 20  1  0  0  0  0
  7 17  2  0  0  0  0
  8 21  1  0  0  0  0
  8 31  1  0  0  0  0
  8 47  1  0  0  0  0
  9 21  2  0  0  0  0
 10 15  1  0  0  0  0
 10 48  1  0  0  0  0
 11 35  1  0  0  0  0
 11 49  1  0  0  0  0
 12 13  2  0  0  0  0
 13 22  1  0  0  0  0
 14 15  1  0  0  0  0
 14 16  1  0  0  0  0
 14 50  1  6  0  0  0
 15 17  1  0  0  0  0
 15 51  1  6  0  0  0
 16 23  1  0  0  0  0
 16 52  1  0  0  0  0
 16 53  1  0  0  0  0
 18 19  1  0  0  0  0
 18 21  1  0  0  0  0
 18 54  1  1  0  0  0
 19 29  1  0  0  0  0
 19 30  1  0  0  0  0
 20 55  1  0  0  0  0
 20 56  1  0  0  0  0
 22 57  1  0  0  0  0
 22 58  1  0  0  0  0
 23 24  2  0  0  0  0
 23 28  1  0  0  0  0
 24 25  1  0  0  0  0
 24 59  1  0  0  0  0
 25 26  2  0  0  0  0
 25 60  1  0  0  0  0
 26 27  1  0  0  0  0
 26 61  1  0  0  0  0
 27 28  2  0  0  0  0
 27 62  1  0  0  0  0
 28 63  1  0  0  0  0
 29 64  1  0  0  0  0
 29 65  1  0  0  0  0
 29 66  1  0  0  0  0
 30 67  1  0  0  0  0
 30 68  1  0  0  0  0
 30 69  1  0  0  0  0
 31 32  1  0  0  0  0
 31 35  1  0  0  0  0
 31 70  1  6  0  0  0
 32 33  2  0  0  0  0
 32 36  1  0  0  0  0
 33 34  1  0  0  0  0
 33 71  1  0  0  0  0
 34 38  2  0  0  0  0
 34 72  1  0  0  0  0
 35 39  1  0  0  0  0
 35 73  1  6  0  0  0
 36 37  2  0  0  0  0
 36 39  1  0  0  0  0
 37 38  1  0  0  0  0
 37 74  1  0  0  0  0
 38 75  1  0  0  0  0
 39 76  1  0  0  0  0
 39 77  1  0  0  0  0
 40 41  2  0  0  0  0
 40 45  1  0  0  0  0
 40 78  1  0  0  0  0
 41 42  1  0  0  0  0
 41 79  1  0  0  0  0
 42 43  2  0  0  0  0
 43 44  1  0  0  0  0
 44 45  2  0  0  0  0
 45 80  1  0  0  0  0
M  END
$$$$
