K53
 OpenBabel04091913553D

 79 83  0  0  1  0  0  0  0  0999 V2000
   15.5963   34.6490   17.6133 C   0  0  0  0  0  0  0  0  0  0  0  0
   16.5789   35.3046   16.9090 C   0  0  0  0  0  0  0  0  0  0  0  0
   17.3639   34.6563   15.9866 C   0  0  0  0  0  0  0  0  0  0  0  0
   17.1380   33.2866   15.8029 C   0  0  0  0  0  0  0  0  0  0  0  0
   16.1297   32.6067   16.5128 C   0  0  0  0  0  0  0  0  0  0  0  0
   15.3436   33.3026   17.4360 C   0  0  0  0  0  0  0  0  0  0  0  0
   18.1153   32.4216   14.5945 S   0  0  0  0  0  0  0  0  0  0  0  0
   17.3036   31.3479   14.0688 O   0  0  0  0  0  0  0  0  0  0  0  0
   18.7009   33.4204   13.7241 O   0  0  0  0  0  0  0  0  0  0  0  0
   19.3669   31.7575   15.5437 N   0  0  0  0  0  0  0  0  0  0  0  0
   20.1782   32.7240   16.3295 C   0  0  0  0  0  0  0  0  0  0  0  0
   21.6750   32.3933   16.3133 C   0  0  0  0  0  0  0  0  0  0  0  0
   22.2469   32.3953   14.8945 C   0  0  0  0  0  0  0  0  0  0  0  0
   22.4202   33.4121   17.1789 C   0  0  0  0  0  0  0  0  0  0  0  0
   19.1033   30.4613   16.2116 C   0  0  0  0  0  0  0  0  0  0  0  0
   20.0249   29.3667   15.6445 C   0  0  1  0  0  0  0  0  0  0  0  0
   15.6382   36.7205   18.2385 C   0  0  0  0  0  0  0  0  0  0  0  0
   19.9520   28.1965   16.4741 O   0  0  0  0  0  0  0  0  0  0  0  0
   19.7156   29.0022   14.1773 C   0  0  1  0  0  0  0  0  0  0  0  0
   14.9358   35.4789   18.4641 O   0  0  0  0  0  0  0  0  0  0  0  0
   20.8501   28.2370   13.6375 N   0  0  0  0  0  0  0  0  0  0  0  0
   21.5652   28.6483   12.5331 C   0  0  0  0  0  0  0  0  0  0  0  0
   21.4642   29.7625   12.0295 O   0  0  0  0  0  0  0  0  0  0  0  0
   22.4366   26.1839   10.2439 N   0  0  0  0  0  0  0  0  0  0  0  0
   22.5924   27.5765   10.5179 C   0  0  0  0  0  0  0  0  0  0  0  0
   22.3386   25.4526   11.4006 C   0  0  0  0  0  0  0  0  0  0  0  0
   22.2378   24.2408   11.5159 O   0  0  0  0  0  0  0  0  0  0  0  0
   22.2974   26.2945   12.4791 O   0  0  0  0  0  0  0  0  0  0  0  0
   22.5781   27.6234   12.0315 C   0  0  2  0  0  0  0  0  0  0  0  0
   16.6642   36.6214   17.2300 O   0  0  0  0  0  0  0  0  0  0  0  0
   18.3970   28.2124   14.0209 C   0  0  0  0  0  0  0  0  0  0  0  0
   18.5047   26.5691   12.1127 C   0  0  0  0  0  0  0  0  0  0  0  0
   18.3683   26.2531   10.7647 C   0  0  0  0  0  0  0  0  0  0  0  0
   17.8595   27.1979    9.8761 C   0  0  0  0  0  0  0  0  0  0  0  0
   17.4925   28.4621   10.3275 C   0  0  0  0  0  0  0  0  0  0  0  0
   17.6331   28.7835   11.6798 C   0  0  0  0  0  0  0  0  0  0  0  0
   18.1410   27.8395   12.5805 C   0  0  0  0  0  0  0  0  0  0  0  0
   23.2971   24.4434    6.5273 C   0  0  0  0  0  0  0  0  0  0  0  0
   24.3052   24.5220    7.4912 C   0  0  0  0  0  0  0  0  0  0  0  0
   24.0336   25.1138    8.7262 C   0  0  0  0  0  0  0  0  0  0  0  0
   22.7602   25.6277    8.9990 C   0  0  0  0  0  0  0  0  0  0  0  0
   21.7598   25.5547    8.0276 C   0  0  0  0  0  0  0  0  0  0  0  0
   22.0267   24.9562    6.7957 C   0  0  0  0  0  0  0  0  0  0  0  0
   25.0206   25.2269    9.6679 O   0  0  0  0  0  0  0  0  0  0  0  0
   18.1250   35.1944   15.4304 H   0  0  0  0  0  0  0  0  0  0  0  0
   15.9490   31.5475   16.3406 H   0  0  0  0  0  0  0  0  0  0  0  0
   14.5537   32.8054   17.9884 H   0  0  0  0  0  0  0  0  0  0  0  0
   19.8085   32.7341   17.3627 H   0  0  0  0  0  0  0  0  0  0  0  0
   20.0511   33.7388   15.9411 H   0  0  0  0  0  0  0  0  0  0  0  0
   21.8400   31.4064   16.7591 H   0  0  0  0  0  0  0  0  0  0  0  0
   23.3221   32.1881   14.9108 H   0  0  0  0  0  0  0  0  0  0  0  0
   22.0966   33.3640   14.4055 H   0  0  0  0  0  0  0  0  0  0  0  0
   21.7752   31.6293   14.2718 H   0  0  0  0  0  0  0  0  0  0  0  0
   22.0130   33.4248   18.1959 H   0  0  0  0  0  0  0  0  0  0  0  0
   22.3327   34.4231   16.7666 H   0  0  0  0  0  0  0  0  0  0  0  0
   23.4832   33.1619   17.2449 H   0  0  0  0  0  0  0  0  0  0  0  0
   18.0573   30.1538   16.1242 H   0  0  0  0  0  0  0  0  0  0  0  0
   19.2670   30.5503   17.2919 H   0  0  0  0  0  0  0  0  0  0  0  0
   21.0660   29.7017   15.6895 H   0  0  0  0  0  0  0  0  0  0  0  0
   16.1069   37.0319   19.1791 H   0  0  0  0  0  0  0  0  0  0  0  0
   14.9172   37.4873   17.9334 H   0  0  0  0  0  0  0  0  0  0  0  0
   20.3061   28.4370   17.3480 H   0  0  0  0  0  0  0  0  0  0  0  0
   19.6436   29.9245   13.5901 H   0  0  0  0  0  0  0  0  0  0  0  0
   20.9924   27.2919   13.9819 H   0  0  0  0  0  0  0  0  0  0  0  0
   21.7703   28.1243   10.0451 H   0  0  0  0  0  0  0  0  0  0  0  0
   23.5414   27.9565   10.1225 H   0  0  0  0  0  0  0  0  0  0  0  0
   23.5557   27.9103   12.4363 H   0  0  0  0  0  0  0  0  0  0  0  0
   17.5426   28.7937   14.3871 H   0  0  0  0  0  0  0  0  0  0  0  0
   18.4123   27.3006   14.6307 H   0  0  0  0  0  0  0  0  0  0  0  0
   18.9223   25.8326   12.7949 H   0  0  0  0  0  0  0  0  0  0  0  0
   18.6684   25.2708   10.4106 H   0  0  0  0  0  0  0  0  0  0  0  0
   17.7599   26.9458    8.8236 H   0  0  0  0  0  0  0  0  0  0  0  0
   17.1095   29.2074    9.6371 H   0  0  0  0  0  0  0  0  0  0  0  0
   17.3658   29.7826   12.0182 H   0  0  0  0  0  0  0  0  0  0  0  0
   23.4990   23.9768    5.5659 H   0  0  0  0  0  0  0  0  0  0  0  0
   25.2862   24.1175    7.2617 H   0  0  0  0  0  0  0  0  0  0  0  0
   20.7628   25.9313    8.2408 H   0  0  0  0  0  0  0  0  0  0  0  0
   21.2395   24.8770    6.0506 H   0  0  0  0  0  0  0  0  0  0  0  0
   25.8123   24.7682    9.3404 H   0  0  0  0  0  0  0  0  0  0  0  0
  1  2  2  0  0  0  0
  1  6  1  0  0  0  0
  1 20  1  0  0  0  0
  2  3  1  0  0  0  0
  2 30  1  0  0  0  0
  3  4  2  0  0  0  0
  3 45  1  0  0  0  0
  4  5  1  0  0  0  0
  4  7  1  0  0  0  0
  5  6  2  0  0  0  0
  5 46  1  0  0  0  0
  6 47  1  0  0  0  0
  7  8  2  0  0  0  0
  7  9  2  0  0  0  0
  7 10  1  0  0  0  0
 10 11  1  0  0  0  0
 10 15  1  0  0  0  0
 11 12  1  0  0  0  0
 11 48  1  0  0  0  0
 11 49  1  0  0  0  0
 12 13  1  0  0  0  0
 12 14  1  0  0  0  0
 12 50  1  0  0  0  0
 13 51  1  0  0  0  0
 13 52  1  0  0  0  0
 13 53  1  0  0  0  0
 14 54  1  0  0  0  0
 14 55  1  0  0  0  0
 14 56  1  0  0  0  0
 15 16  1  0  0  0  0
 15 57  1  0  0  0  0
 15 58  1  0  0  0  0
 16 18  1  0  0  0  0
 16 19  1  0  0  0  0
 16 59  1  1  0  0  0
 17 20  1  0  0  0  0
 17 30  1  0  0  0  0
 17 60  1  0  0  0  0
 17 61  1  0  0  0  0
 18 62  1  0  0  0  0
 19 21  1  0  0  0  0
 19 31  1  0  0  0  0
 19 63  1  6  0  0  0
 21 22  1  0  0  0  0
 21 64  1  0  0  0  0
 22 23  2  0  0  0  0
 22 29  1  0  0  0  0
 24 25  1  0  0  0  0
 24 26  1  0  0  0  0
 24 41  1  0  0  0  0
 25 29  1  0  0  0  0
 25 65  1  0  0  0  0
 25 66  1  0  0  0  0
 26 27  2  0  0  0  0
 26 28  1  0  0  0  0
 28 29  1  0  0  0  0
 29 67  1  1  0  0  0
 31 37  1  0  0  0  0
 31 68  1  0  0  0  0
 31 69  1  0  0  0  0
 32 33  2  0  0  0  0
 32 37  1  0  0  0  0
 32 70  1  0  0  0  0
 33 34  1  0  0  0  0
 33 71  1  0  0  0  0
 34 35  2  0  0  0  0
 34 72  1  0  0  0  0
 35 36  1  0  0  0  0
 35 73  1  0  0  0  0
 36 37  2  0  0  0  0
 36 74  1  0  0  0  0
 38 39  2  0  0  0  0
 38 43  1  0  0  0  0
 38 75  1  0  0  0  0
 39 40  1  0  0  0  0
 39 76  1  0  0  0  0
 40 41  2  0  0  0  0
 40 44  1  0  0  0  0
 41 42  1  0  0  0  0
 42 43  2  0  0  0  0
 42 77  1  0  0  0  0
 43 78  1  0  0  0  0
 44 79  1  0  0  0  0
M  END
$$$$
