K60
 OpenBabel04091912443D

 81 85  0  0  1  0  0  0  0  0999 V2000
   17.1361   31.3994   14.1066 O   0  0  0  0  0  0  0  0  0  0  0  0
   17.9696   32.4806   14.5851 S   0  0  0  0  0  0  0  0  0  0  0  0
   18.5074   33.4704   13.6778 O   0  0  0  0  0  0  0  0  0  0  0  0
   17.0446   33.3401   15.8294 C   0  0  0  0  0  0  0  0  0  0  0  0
   17.2936   34.7032   16.0361 C   0  0  0  0  0  0  0  0  0  0  0  0
   16.5409   35.3389   16.9932 C   0  0  0  0  0  0  0  0  0  0  0  0
   15.5708   34.6723   17.7074 C   0  0  0  0  0  0  0  0  0  0  0  0
   14.9364   35.4860   18.5952 O   0  0  0  0  0  0  0  0  0  0  0  0
   15.6344   36.7312   18.3743 C   0  0  0  0  0  0  0  0  0  0  0  0
   16.6416   36.6467   17.3463 O   0  0  0  0  0  0  0  0  0  0  0  0
   15.2992   33.3343   17.5116 C   0  0  0  0  0  0  0  0  0  0  0  0
   16.0477   32.6554   16.5487 C   0  0  0  0  0  0  0  0  0  0  0  0
   19.2603   31.8124   15.4784 N   0  0  0  0  0  0  0  0  0  0  0  0
   20.0941   32.7877   16.2255 C   0  0  0  0  0  0  0  0  0  0  0  0
   21.5691   32.3794   16.2846 C   0  0  0  0  0  0  0  0  0  0  0  0
   22.2005   32.2973   14.8943 C   0  0  0  0  0  0  0  0  0  0  0  0
   22.3255   33.3898   17.1472 C   0  0  0  0  0  0  0  0  0  0  0  0
   19.0158   30.5331   16.1869 C   0  0  0  0  0  0  0  0  0  0  0  0
   19.8722   29.3987   15.5819 C   0  0  1  0  0  0  0  0  0  0  0  0
   19.8347   28.2485   16.4413 O   0  0  0  0  0  0  0  0  0  0  0  0
   19.4634   29.0417   14.1350 C   0  0  2  0  0  0  0  0  0  0  0  0
   18.1196   28.2897   14.0445 C   0  0  0  0  0  0  0  0  0  0  0  0
   17.7551   27.9783   12.6114 C   0  0  0  0  0  0  0  0  0  0  0  0
   17.9040   26.6768   12.1173 C   0  0  0  0  0  0  0  0  0  0  0  0
   17.6301   26.3990   10.7801 C   0  0  0  0  0  0  0  0  0  0  0  0
   17.2049   27.4171    9.9277 C   0  0  0  0  0  0  0  0  0  0  0  0
   17.0719   28.7180   10.4050 C   0  0  0  0  0  0  0  0  0  0  0  0
   17.3455   28.9971   11.7415 C   0  0  0  0  0  0  0  0  0  0  0  0
   20.5089   28.2373   13.4897 N   0  0  0  0  0  0  0  0  0  0  0  0
   21.1965   28.7068   12.3955 C   0  0  0  0  0  0  0  0  0  0  0  0
   21.1985   29.8832   12.0413 O   0  0  0  0  0  0  0  0  0  0  0  0
   21.9036   27.6392   11.5752 C   0  0  1  0  0  0  0  0  0  0  0  0
   21.8429   26.3192   12.1099 O   0  0  0  0  0  0  0  0  0  0  0  0
   21.5559   25.4482   11.0889 C   0  0  0  0  0  0  0  0  0  0  0  0
   21.5835   24.2442   11.2479 O   0  0  0  0  0  0  0  0  0  0  0  0
   21.2185   27.5609   10.2322 C   0  0  0  0  0  0  0  0  0  0  0  0
   21.1957   26.1585    9.9543 N   0  0  0  0  0  0  0  0  0  0  0  0
   20.7963   25.6303    8.7099 C   0  0  0  0  0  0  0  0  0  0  0  0
   21.2296   24.3729    8.2809 C   0  0  0  0  0  0  0  0  0  0  0  0
   20.8702   23.8831    7.0219 C   0  0  0  0  0  0  0  0  0  0  0  0
   20.0439   24.6311    6.1860 C   0  0  0  0  0  0  0  0  0  0  0  0
   19.9755   26.3786    7.8523 C   0  0  0  0  0  0  0  0  0  0  0  0
   19.5816   25.8855    6.5959 C   0  0  0  0  0  0  0  0  0  0  0  0
   18.6583   26.6970    5.7235 C   0  0  0  0  0  0  0  0  0  0  0  0
   17.3722   26.6795    6.1715 F   0  0  0  0  0  0  0  0  0  0  0  0
   18.6125   26.2644    4.4331 F   0  0  0  0  0  0  0  0  0  0  0  0
   19.0145   28.0101    5.6643 F   0  0  0  0  0  0  0  0  0  0  0  0
   18.0504   35.2440   15.4726 H   0  0  0  0  0  0  0  0  0  0  0  0
   16.1171   37.0274   19.3123 H   0  0  0  0  0  0  0  0  0  0  0  0
   14.9068   37.5003   18.0952 H   0  0  0  0  0  0  0  0  0  0  0  0
   14.5237   32.8314   18.0780 H   0  0  0  0  0  0  0  0  0  0  0  0
   15.8483   31.6019   16.3548 H   0  0  0  0  0  0  0  0  0  0  0  0
   19.6922   32.8784   17.2430 H   0  0  0  0  0  0  0  0  0  0  0  0
   20.0300   33.7808   15.7680 H   0  0  0  0  0  0  0  0  0  0  0  0
   21.6615   31.4019   16.7699 H   0  0  0  0  0  0  0  0  0  0  0  0
   23.2563   32.0167   14.9689 H   0  0  0  0  0  0  0  0  0  0  0  0
   22.1398   33.2565   14.3698 H   0  0  0  0  0  0  0  0  0  0  0  0
   21.7054   31.5456   14.2725 H   0  0  0  0  0  0  0  0  0  0  0  0
   21.8702   33.4657   18.1406 H   0  0  0  0  0  0  0  0  0  0  0  0
   22.3124   34.3864   16.6927 H   0  0  0  0  0  0  0  0  0  0  0  0
   23.3682   33.0850   17.2775 H   0  0  0  0  0  0  0  0  0  0  0  0
   17.9602   30.2480   16.1623 H   0  0  0  0  0  0  0  0  0  0  0  0
   19.2403   30.6346   17.2549 H   0  0  0  0  0  0  0  0  0  0  0  0
   20.9213   29.7093   15.5660 H   0  0  0  0  0  0  0  0  0  0  0  0
   18.9082   27.9950   16.5859 H   0  0  0  0  0  0  0  0  0  0  0  0
   19.3821   29.9743   13.5664 H   0  0  0  0  0  0  0  0  0  0  0  0
   17.3038   28.8586   14.5025 H   0  0  0  0  0  0  0  0  0  0  0  0
   18.1782   27.3497   14.6074 H   0  0  0  0  0  0  0  0  0  0  0  0
   18.2542   25.8761   12.7650 H   0  0  0  0  0  0  0  0  0  0  0  0
   17.7639   25.3893   10.4009 H   0  0  0  0  0  0  0  0  0  0  0  0
   16.9884   27.1992    8.8859 H   0  0  0  0  0  0  0  0  0  0  0  0
   16.7614   29.5200    9.7404 H   0  0  0  0  0  0  0  0  0  0  0  0
   17.2540   30.0228   12.0908 H   0  0  0  0  0  0  0  0  0  0  0  0
   20.5411   27.2412   13.6845 H   0  0  0  0  0  0  0  0  0  0  0  0
   22.9589   27.9216   11.4905 H   0  0  0  0  0  0  0  0  0  0  0  0
   21.7966   28.0888    9.4648 H   0  0  0  0  0  0  0  0  0  0  0  0
   20.2012   27.9614   10.2474 H   0  0  0  0  0  0  0  0  0  0  0  0
   21.8963   23.7702    8.8936 H   0  0  0  0  0  0  0  0  0  0  0  0
   21.2460   22.9176    6.6912 H   0  0  0  0  0  0  0  0  0  0  0  0
   19.7677   24.2339    5.2106 H   0  0  0  0  0  0  0  0  0  0  0  0
   19.5915   27.3489    8.1617 H   0  0  0  0  0  0  0  0  0  0  0  0
  1  2  2  0  0  0  0
  2  3  2  0  0  0  0
  2  4  1  0  0  0  0
  2 13  1  0  0  0  0
  4  5  2  0  0  0  0
  4 12  1  0  0  0  0
  5  6  1  0  0  0  0
  5 48  1  0  0  0  0
  6  7  2  0  0  0  0
  6 10  1  0  0  0  0
  7  8  1  0  0  0  0
  7 11  1  0  0  0  0
  8  9  1  0  0  0  0
  9 10  1  0  0  0  0
  9 49  1  0  0  0  0
  9 50  1  0  0  0  0
 11 12  2  0  0  0  0
 11 51  1  0  0  0  0
 12 52  1  0  0  0  0
 13 14  1  0  0  0  0
 13 18  1  0  0  0  0
 14 15  1  0  0  0  0
 14 53  1  0  0  0  0
 14 54  1  0  0  0  0
 15 16  1  0  0  0  0
 15 17  1  0  0  0  0
 15 55  1  0  0  0  0
 16 56  1  0  0  0  0
 16 57  1  0  0  0  0
 16 58  1  0  0  0  0
 17 59  1  0  0  0  0
 17 60  1  0  0  0  0
 17 61  1  0  0  0  0
 18 19  1  0  0  0  0
 18 62  1  0  0  0  0
 18 63  1  0  0  0  0
 19 20  1  0  0  0  0
 19 21  1  0  0  0  0
 19 64  1  6  0  0  0
 20 65  1  0  0  0  0
 21 22  1  0  0  0  0
 21 29  1  0  0  0  0
 21 66  1  6  0  0  0
 22 23  1  0  0  0  0
 22 67  1  0  0  0  0
 22 68  1  0  0  0  0
 23 24  2  0  0  0  0
 23 28  1  0  0  0  0
 24 25  1  0  0  0  0
 24 69  1  0  0  0  0
 25 26  2  0  0  0  0
 25 70  1  0  0  0  0
 26 27  1  0  0  0  0
 26 71  1  0  0  0  0
 27 28  2  0  0  0  0
 27 72  1  0  0  0  0
 28 73  1  0  0  0  0
 29 30  1  0  0  0  0
 29 74  1  0  0  0  0
 30 31  2  0  0  0  0
 30 32  1  0  0  0  0
 32 33  1  0  0  0  0
 32 36  1  0  0  0  0
 32 75  1  6  0  0  0
 33 34  1  0  0  0  0
 34 35  2  0  0  0  0
 34 37  1  0  0  0  0
 36 37  1  0  0  0  0
 36 76  1  0  0  0  0
 36 77  1  0  0  0  0
 37 38  1  0  0  0  0
 38 39  2  0  0  0  0
 38 42  1  0  0  0  0
 39 40  1  0  0  0  0
 39 78  1  0  0  0  0
 40 41  2  0  0  0  0
 40 79  1  0  0  0  0
 41 43  1  0  0  0  0
 41 80  1  0  0  0  0
 42 43  2  0  0  0  0
 42 81  1  0  0  0  0
 43 44  1  0  0  0  0
 44 45  1  0  0  0  0
 44 46  1  0  0  0  0
 44 47  1  0  0  0  0
M  END
$$$$
