LA3
 OpenBabel04091913353D

 61 65  0  0  1  0  0  0  0  0999 V2000
   74.1813   88.9801   45.7789 C   0  0  0  0  0  0  0  0  0  0  0  0
   72.4105   89.3577   47.8558 C   0  0  0  0  0  0  0  0  0  0  0  0
   73.5744   90.2288   45.9108 C   0  0  0  0  0  0  0  0  0  0  0  0
   73.9176   87.9335   46.6364 C   0  0  0  0  0  0  0  0  0  0  0  0
   73.0341   88.1245   47.7115 C   0  0  0  0  0  0  0  0  0  0  0  0
   72.6802   90.3986   46.9745 C   0  0  0  0  0  0  0  0  0  0  0  0
   73.8778   91.3263   44.9720 C   0  0  0  0  0  0  0  0  0  0  0  0
   72.6628   87.0351   48.6724 C   0  0  0  0  0  0  0  0  0  0  0  0
   74.5093   93.3390   43.1757 C   0  0  0  0  0  0  0  0  0  0  0  0
   73.2724   92.5873   45.0906 C   0  0  0  0  0  0  0  0  0  0  0  0
   74.7997   91.1281   43.9087 C   0  0  0  0  0  0  0  0  0  0  0  0
   75.1204   92.1317   43.0055 C   0  0  0  0  0  0  0  0  0  0  0  0
   73.6106   93.5605   44.1895 C   0  0  0  0  0  0  0  0  0  0  0  0
   73.1186   94.8306   44.1780 O   0  0  0  0  0  0  0  0  0  0  0  0
   74.7034   94.4372   42.4011 O   0  0  0  0  0  0  0  0  0  0  0  0
   73.8343   95.3767   43.0543 C   0  0  0  0  0  0  0  0  0  0  0  0
   73.7108   85.9418   48.8600 C   0  0  1  0  0  0  0  0  0  0  0  0
   74.6455   86.3355   49.9690 C   0  0  0  0  0  0  0  0  0  0  0  0
   73.0603   84.6223   49.2990 C   0  0  0  0  0  0  0  0  0  0  0  0
   72.3929   84.0235   48.0913 C   0  0  0  0  0  0  0  0  0  0  0  0
   73.0087   83.8027   47.0530 O   0  0  0  0  0  0  0  0  0  0  0  0
   71.0302   83.9345   48.2402 N   0  0  0  0  0  0  0  0  0  0  0  0
   70.3120   84.0156   47.0326 O   0  0  0  0  0  0  0  0  0  0  0  0
   74.2765   86.4021   51.1390 O   0  0  0  0  0  0  0  0  0  0  0  0
   75.9470   86.4554   49.5715 N   0  0  0  0  0  0  0  0  0  0  0  0
   76.9899   86.4393   50.5563 C   0  0  1  0  0  0  0  0  0  0  0  0
   78.2651   85.8245   50.0724 C   0  0  0  0  0  0  0  0  0  0  0  0
   77.4919   87.8344   50.9955 C   0  0  2  0  0  0  0  0  0  0  0  0
   77.5678   88.7039   49.8464 O   0  0  0  0  0  0  0  0  0  0  0  0
   78.9131   87.6082   51.5425 C   0  0  0  0  0  0  0  0  0  0  0  0
   80.8581   85.0400   49.5107 C   0  0  0  0  0  0  0  0  0  0  0  0
   78.4588   84.7618   49.2083 C   0  0  0  0  0  0  0  0  0  0  0  0
   79.3689   86.4889   50.6625 C   0  0  0  0  0  0  0  0  0  0  0  0
   80.6601   86.0984   50.3836 C   0  0  0  0  0  0  0  0  0  0  0  0
   79.7621   84.3748   48.9262 C   0  0  0  0  0  0  0  0  0  0  0  0
   74.9004   88.7580   44.9927 H   0  0  0  0  0  0  0  0  0  0  0  0
   71.7000   89.5257   48.6579 H   0  0  0  0  0  0  0  0  0  0  0  0
   74.4143   86.9978   46.4468 H   0  0  0  0  0  0  0  0  0  0  0  0
   72.1627   91.3309   47.1477 H   0  0  0  0  0  0  0  0  0  0  0  0
   71.7215   86.6123   48.3049 H   0  0  0  0  0  0  0  0  0  0  0  0
   72.4552   87.5042   49.6363 H   0  0  0  0  0  0  0  0  0  0  0  0
   72.5537   92.8301   45.8615 H   0  0  0  0  0  0  0  0  0  0  0  0
   75.2979   90.1766   43.7577 H   0  0  0  0  0  0  0  0  0  0  0  0
   75.8320   91.9438   42.2074 H   0  0  0  0  0  0  0  0  0  0  0  0
   74.4409   96.2178   43.4061 H   0  0  0  0  0  0  0  0  0  0  0  0
   73.1067   95.7389   42.3209 H   0  0  0  0  0  0  0  0  0  0  0  0
   74.2897   85.7470   47.9537 H   0  0  0  0  0  0  0  0  0  0  0  0
   72.3308   84.8204   50.0918 H   0  0  0  0  0  0  0  0  0  0  0  0
   73.8076   83.9194   49.6747 H   0  0  0  0  0  0  0  0  0  0  0  0
   70.5599   83.7214   49.1163 H   0  0  0  0  0  0  0  0  0  0  0  0
   69.3782   83.9876   47.2946 H   0  0  0  0  0  0  0  0  0  0  0  0
   76.1730   86.7245   48.6188 H   0  0  0  0  0  0  0  0  0  0  0  0
   76.6486   85.8674   51.4296 H   0  0  0  0  0  0  0  0  0  0  0  0
   76.8276   88.3018   51.7271 H   0  0  0  0  0  0  0  0  0  0  0  0
   77.9839   89.5289   50.1413 H   0  0  0  0  0  0  0  0  0  0  0  0
   78.9056   87.2802   52.5879 H   0  0  0  0  0  0  0  0  0  0  0  0
   79.5417   88.4910   51.4192 H   0  0  0  0  0  0  0  0  0  0  0  0
   81.8694   84.7182   49.2740 H   0  0  0  0  0  0  0  0  0  0  0  0
   77.6127   84.2530   48.7493 H   0  0  0  0  0  0  0  0  0  0  0  0
   81.5067   86.6255   50.8285 H   0  0  0  0  0  0  0  0  0  0  0  0
   79.9444   83.5474   48.2421 H   0  0  0  0  0  0  0  0  0  0  0  0
  1  3  2  0  0  0  0
  1  4  1  0  0  0  0
  1 36  1  0  0  0  0
  2  5  1  0  0  0  0
  2  6  2  0  0  0  0
  2 37  1  0  0  0  0
  3  6  1  0  0  0  0
  3  7  1  0  0  0  0
  4  5  2  0  0  0  0
  4 38  1  0  0  0  0
  5  8  1  0  0  0  0
  6 39  1  0  0  0  0
  7 10  2  0  0  0  0
  7 11  1  0  0  0  0
  8 17  1  0  0  0  0
  8 40  1  0  0  0  0
  8 41  1  0  0  0  0
  9 12  1  0  0  0  0
  9 13  2  0  0  0  0
  9 15  1  0  0  0  0
 10 13  1  0  0  0  0
 10 42  1  0  0  0  0
 11 12  2  0  0  0  0
 11 43  1  0  0  0  0
 12 44  1  0  0  0  0
 13 14  1  0  0  0  0
 14 16  1  0  0  0  0
 15 16  1  0  0  0  0
 16 45  1  0  0  0  0
 16 46  1  0  0  0  0
 17 18  1  0  0  0  0
 17 19  1  0  0  0  0
 17 47  1  6  0  0  0
 18 24  2  0  0  0  0
 18 25  1  0  0  0  0
 19 20  1  0  0  0  0
 19 48  1  0  0  0  0
 19 49  1  0  0  0  0
 20 21  2  0  0  0  0
 20 22  1  0  0  0  0
 22 23  1  0  0  0  0
 22 50  1  0  0  0  0
 23 51  1  0  0  0  0
 25 26  1  0  0  0  0
 25 52  1  0  0  0  0
 26 27  1  0  0  0  0
 26 28  1  0  0  0  0
 26 53  1  1  0  0  0
 27 32  2  0  0  0  0
 27 33  1  0  0  0  0
 28 29  1  0  0  0  0
 28 30  1  0  0  0  0
 28 54  1  1  0  0  0
 29 55  1  0  0  0  0
 30 33  1  0  0  0  0
 30 56  1  0  0  0  0
 30 57  1  0  0  0  0
 31 34  1  0  0  0  0
 31 35  2  0  0  0  0
 31 58  1  0  0  0  0
 32 35  1  0  0  0  0
 32 59  1  0  0  0  0
 33 34  2  0  0  0  0
 34 60  1  0  0  0  0
 35 61  1  0  0  0  0
M  END
$$$$
