LG0
 OpenBabel04091911173D

 67 72  0  0  0  0  0  0  0  0999 V2000
    6.4598   44.2893   62.9067 C   0  0  0  0  0  0  0  0  0  0  0  0
    7.1788   39.4735   59.5507 C   0  0  0  0  0  0  0  0  0  0  0  0
    8.4242   38.8966   57.3983 C   0  0  0  0  0  0  0  0  0  0  0  0
    7.8493   39.9387   58.3743 C   0  0  0  0  0  0  0  0  0  0  0  0
   12.9682   44.0904   66.6077 C   0  0  0  0  0  0  0  0  0  0  0  0
    4.2044   43.9293   61.9249 C   0  0  0  0  0  0  0  0  0  0  0  0
    4.7886   42.5653   61.5459 C   0  0  0  0  0  0  0  0  0  0  0  0
    9.7939   39.0270   56.8064 C   0  0  0  0  0  0  0  0  0  0  0  0
    6.6173   40.3780   60.4676 C   0  0  0  0  0  0  0  0  0  0  0  0
    7.4912   38.1124   56.5268 C   0  0  0  0  0  0  0  0  0  0  0  0
    3.5338   45.8771   64.4679 C   0  0  0  0  0  0  0  0  0  0  0  0
    5.1135   44.5329   62.9308 C   0  0  0  0  0  0  0  0  0  0  0  0
    6.6695   39.5871   54.6869 C   0  0  0  0  0  0  0  0  0  0  0  0
   11.0627   44.9154   65.3109 C   0  0  0  0  0  0  0  0  0  0  0  0
   10.6449   45.9108   64.3728 C   0  0  0  0  0  0  0  0  0  0  0  0
    9.2943   45.9651   63.9297 C   0  0  0  0  0  0  0  0  0  0  0  0
    8.3720   45.0129   64.4270 C   0  0  0  0  0  0  0  0  0  0  0  0
    8.7671   44.0529   65.4011 C   0  0  0  0  0  0  0  0  0  0  0  0
   10.1225   44.0011   65.8428 C   0  0  0  0  0  0  0  0  0  0  0  0
    7.0179   45.0040   63.9554 N   0  3  0  0  0  0  0  0  0  0  0  0
    6.0312   45.6421   64.6791 N   0  0  0  0  0  0  0  0  0  0  0  0
    6.2151   42.6592   61.1848 N   0  0  0  0  0  0  0  0  0  0  0  0
    6.7441   41.7666   60.2232 C   0  0  0  0  0  0  0  0  0  0  0  0
    7.3886   42.2760   59.0712 C   0  0  0  0  0  0  0  0  0  0  0  0
    7.9423   41.3590   58.1389 C   0  0  0  0  0  0  0  0  0  0  0  0
    7.1224   43.4600   61.9540 C   0  0  0  0  0  0  0  0  0  0  0  0
    4.8749   45.3646   64.0302 C   0  0  0  0  0  0  0  0  0  0  0  0
    8.2997   43.4374   61.7896 O   0  0  0  0  0  0  0  0  0  0  0  0
    3.5852   46.9286   65.3224 F   0  0  0  0  0  0  0  0  0  0  0  0
    2.7915   46.2800   63.3948 F   0  0  0  0  0  0  0  0  0  0  0  0
    2.8166   44.8913   65.0789 F   0  0  0  0  0  0  0  0  0  0  0  0
   12.4129   44.9503   65.6048 O   0  0  0  0  0  0  0  0  0  0  0  0
    9.5300   38.0091   57.8909 C   0  0  0  0  0  0  0  0  0  0  0  0
    6.3574   38.8726   55.9812 N   0  3  0  0  0  0  0  0  0  0  0  0
    5.1458   38.0123   55.7239 C   0  0  0  0  0  0  0  0  0  0  0  0
    5.0014   38.0538   54.2219 C   0  0  0  0  0  0  0  0  0  0  0  0
    5.3511   39.5089   53.9594 C   0  0  0  0  0  0  0  0  0  0  0  0
    7.1158   38.3942   59.7421 H   0  0  0  0  0  0  0  0  0  0  0  0
   14.0566   44.2738   66.6870 H   0  0  0  0  0  0  0  0  0  0  0  0
   12.8335   43.0349   66.3479 H   0  0  0  0  0  0  0  0  0  0  0  0
   12.5295   44.2999   67.5892 H   0  0  0  0  0  0  0  0  0  0  0  0
    3.1966   43.8174   62.3223 H   0  0  0  0  0  0  0  0  0  0  0  0
    4.1708   44.5803   61.0417 H   0  0  0  0  0  0  0  0  0  0  0  0
    4.2336   42.1698   60.6912 H   0  0  0  0  0  0  0  0  0  0  0  0
    4.6783   41.8868   62.4021 H   0  0  0  0  0  0  0  0  0  0  0  0
   10.4125   39.8834   57.0287 H   0  0  0  0  0  0  0  0  0  0  0  0
    9.9345   38.6796   55.7884 H   0  0  0  0  0  0  0  0  0  0  0  0
    6.1299   40.0087   61.3757 H   0  0  0  0  0  0  0  0  0  0  0  0
    7.1167   37.2499   57.0907 H   0  0  0  0  0  0  0  0  0  0  0  0
    8.0657   37.7113   55.6827 H   0  0  0  0  0  0  0  0  0  0  0  0
    7.4462   39.0217   54.1568 H   0  0  0  0  0  0  0  0  0  0  0  0
    7.0013   40.6015   54.8967 H   0  0  0  0  0  0  0  0  0  0  0  0
   11.3759   46.6420   63.9931 H   0  0  0  0  0  0  0  0  0  0  0  0
    8.9842   46.7464   63.2123 H   0  0  0  0  0  0  0  0  0  0  0  0
    8.0196   43.3535   65.8102 H   0  0  0  0  0  0  0  0  0  0  0  0
   10.4068   43.2514   66.5875 H   0  0  0  0  0  0  0  0  0  0  0  0
    7.4532   43.3639   58.8834 H   0  0  0  0  0  0  0  0  0  0  0  0
    8.4676   41.7293   57.2471 H   0  0  0  0  0  0  0  0  0  0  0  0
    9.4656   36.9560   57.6349 H   0  0  0  0  0  0  0  0  0  0  0  0
    9.9463   38.1594   58.8770 H   0  0  0  0  0  0  0  0  0  0  0  0
    4.2961   38.4882   56.2201 H   0  0  0  0  0  0  0  0  0  0  0  0
    5.3084   37.0074   56.1147 H   0  0  0  0  0  0  0  0  0  0  0  0
    4.0037   37.7818   53.9007 H   0  0  0  0  0  0  0  0  0  0  0  0
    5.7346   37.3867   53.7424 H   0  0  0  0  0  0  0  0  0  0  0  0
    5.4456   39.7450   52.9065 H   0  0  0  0  0  0  0  0  0  0  0  0
    4.6055   40.1741   54.4206 H   0  0  0  0  0  0  0  0  0  0  0  0
    6.1195   39.5843   56.6832 H   0  0  0  0  0  0  0  0  0  0  0  0
  1 12  1  0  0  0  0
  1 20  2  0  0  0  0
  1 26  1  0  0  0  0
  2  4  2  0  0  0  0
  2  9  1  0  0  0  0
  2 38  1  0  0  0  0
  3  4  1  0  0  0  0
  3  8  1  0  0  0  0
  3 10  1  0  0  0  0
  3 33  1  0  0  0  0
  4 25  1  0  0  0  0
  5 32  1  0  0  0  0
  5 39  1  0  0  0  0
  5 40  1  0  0  0  0
  5 41  1  0  0  0  0
  6  7  1  0  0  0  0
  6 12  1  0  0  0  0
  6 42  1  0  0  0  0
  6 43  1  0  0  0  0
  7 22  1  0  0  0  0
  7 44  1  0  0  0  0
  7 45  1  0  0  0  0
  8 33  1  0  0  0  0
  8 46  1  0  0  0  0
  8 47  1  0  0  0  0
  9 23  2  0  0  0  0
  9 48  1  0  0  0  0
 10 34  1  0  0  0  0
 10 49  1  0  0  0  0
 10 50  1  0  0  0  0
 11 27  1  0  0  0  0
 11 29  1  0  0  0  0
 11 30  1  0  0  0  0
 11 31  1  0  0  0  0
 12 27  2  0  0  0  0
 13 34  1  0  0  0  0
 13 37  1  0  0  0  0
 13 51  1  0  0  0  0
 13 52  1  0  0  0  0
 14 15  2  0  0  0  0
 14 19  1  0  0  0  0
 14 32  1  0  0  0  0
 15 16  1  0  0  0  0
 15 53  1  0  0  0  0
 16 17  2  0  0  0  0
 16 54  1  0  0  0  0
 17 18  1  0  0  0  0
 17 20  1  0  0  0  0
 18 19  2  0  0  0  0
 18 55  1  0  0  0  0
 19 56  1  0  0  0  0
 20 21  1  0  0  0  0
 21 27  1  0  0  0  0
 22 23  1  0  0  0  0
 22 26  1  0  0  0  0
 23 24  1  0  0  0  0
 24 25  2  0  0  0  0
 24 57  1  0  0  0  0
 25 58  1  0  0  0  0
 26 28  2  0  0  0  0
 33 59  1  0  0  0  0
 33 60  1  0  0  0  0
 34 35  1  0  0  0  0
 34 67  1  0  0  0  0
 35 36  1  0  0  0  0
 35 61  1  0  0  0  0
 35 62  1  0  0  0  0
 36 37  1  0  0  0  0
 36 63  1  0  0  0  0
 36 64  1  0  0  0  0
 37 65  1  0  0  0  0
 37 66  1  0  0  0  0
M  CHG  2  20   1  34   1
M  END
$$$$
