LGB
 OpenBabel04091912383D

 38 40  0  0  1  0  0  0  0  0999 V2000
   55.1290   -1.1470    3.5998 C   0  0  0  0  0  0  0  0  0  0  0  0
   55.7889   -0.1138    4.4279 N   0  0  0  0  0  0  0  0  0  0  0  0
   57.2224   -0.3173    4.5198 C   0  0  1  0  0  0  0  0  0  0  0  0
   57.5155   -1.0165    3.1848 C   0  0  2  0  0  0  0  0  0  0  0  0
   56.2961   -1.9352    2.9827 C   0  0  0  0  0  0  0  0  0  0  0  0
   55.5594    1.2019    4.3796 C   0  0  0  0  0  0  0  0  0  0  0  0
   56.6245    1.9471    4.6655 O   0  0  0  0  0  0  0  0  0  0  0  0
   57.7649    1.0757    4.7307 C   0  0  1  0  0  0  0  0  0  0  0  0
   54.4558    1.7766    3.9402 N   0  0  0  0  0  0  0  0  0  0  0  0
   54.1419    3.1089    3.9197 C   0  0  0  0  0  0  0  0  0  0  0  0
   52.7835    3.4803    4.0629 C   0  0  0  0  0  0  0  0  0  0  0  0
   52.4549    4.8417    4.0364 C   0  0  0  0  0  0  0  0  0  0  0  0
   53.4440    5.8224    3.8444 C   0  0  0  0  0  0  0  0  0  0  0  0
   54.7714    5.4616    3.6837 C   0  0  0  0  0  0  0  0  0  0  0  0
   55.1049    4.1151    3.7246 C   0  0  0  0  0  0  0  0  0  0  0  0
   51.7068    2.4393    4.2822 C   0  0  0  0  0  0  0  0  0  0  0  0
   50.8074    5.3174    4.2353 Cl  0  0  0  0  0  0  0  0  0  0  0  0
   58.6977   -1.7891    3.2685 O   0  0  0  0  0  0  0  0  0  0  0  0
   53.1234    7.1885    3.8093 C   0  0  0  0  0  0  0  0  0  0  0  0
   52.7912    8.3202    3.7889 N   0  0  0  0  0  0  0  0  0  0  0  0
   58.3205    1.2303    6.1308 C   0  0  0  0  0  0  0  0  0  0  0  0
   59.3843    0.4206    6.2854 F   0  0  0  0  0  0  0  0  0  0  0  0
   57.4027    0.9286    7.0740 F   0  0  0  0  0  0  0  0  0  0  0  0
   58.7056    2.5027    6.3287 F   0  0  0  0  0  0  0  0  0  0  0  0
   54.5791   -0.6362    2.8104 H   0  0  0  0  0  0  0  0  0  0  0  0
   54.4667   -1.8155    4.1610 H   0  0  0  0  0  0  0  0  0  0  0  0
   57.5270   -0.9616    5.3437 H   0  0  0  0  0  0  0  0  0  0  0  0
   57.6145   -0.3096    2.3496 H   0  0  0  0  0  0  0  0  0  0  0  0
   56.1042   -2.1480    1.9172 H   0  0  0  0  0  0  0  0  0  0  0  0
   56.4221   -2.9099    3.4863 H   0  0  0  0  0  0  0  0  0  0  0  0
   58.5324    1.3544    3.9856 H   0  0  0  0  0  0  0  0  0  0  0  0
   55.5261    6.2340    3.5351 H   0  0  0  0  0  0  0  0  0  0  0  0
   56.1398    3.8501    3.5879 H   0  0  0  0  0  0  0  0  0  0  0  0
   52.1301    1.4334    4.2887 H   0  0  0  0  0  0  0  0  0  0  0  0
   50.9651    2.4840    3.4763 H   0  0  0  0  0  0  0  0  0  0  0  0
   51.2085    2.5891    5.2472 H   0  0  0  0  0  0  0  0  0  0  0  0
   59.4596   -1.1991    3.3910 H   0  0  0  0  0  0  0  0  0  0  0  0
   53.7356    1.1595    3.6253 H   0  0  0  0  0  0  0  0  0  0  0  0
  1  2  1  0  0  0  0
  1  5  1  0  0  0  0
  1 25  1  0  0  0  0
  1 26  1  0  0  0  0
  2  3  1  0  0  0  0
  2  6  1  0  0  0  0
  3  4  1  0  0  0  0
  3  8  1  0  0  0  0
  3 27  1  1  0  0  0
  4  5  1  0  0  0  0
  4 18  1  0  0  0  0
  4 28  1  6  0  0  0
  5 29  1  0  0  0  0
  5 30  1  0  0  0  0
  6  7  1  0  0  0  0
  6  9  2  0  0  0  0
  7  8  1  0  0  0  0
  8 21  1  0  0  0  0
  8 31  1  6  0  0  0
  9 10  1  0  0  0  0
  9 38  1  0  0  0  0
 10 11  2  0  0  0  0
 10 15  1  0  0  0  0
 11 12  1  0  0  0  0
 11 16  1  0  0  0  0
 12 13  2  0  0  0  0
 12 17  1  0  0  0  0
 13 14  1  0  0  0  0
 13 19  1  0  0  0  0
 14 15  2  0  0  0  0
 14 32  1  0  0  0  0
 15 33  1  0  0  0  0
 16 34  1  0  0  0  0
 16 35  1  0  0  0  0
 16 36  1  0  0  0  0
 18 37  1  0  0  0  0
 19 20  3  0  0  0  0
 21 22  1  0  0  0  0
 21 23  1  0  0  0  0
 21 24  1  0  0  0  0
M  END
$$$$
