LIZ
 OpenBabel04091911313D

 91 92  0  0  1  0  0  0  0  0999 V2000
   -1.1977   57.3128   68.7318 N   0  0  0  0  0  0  0  0  0  0  0  0
    0.6183   61.6969   67.4277 N   0  0  0  0  0  0  0  0  0  0  0  0
   -0.4774   57.1789   70.0191 C   0  0  0  0  0  0  0  0  0  0  0  0
   -1.7519   58.4841   65.1316 C   0  0  0  0  0  0  0  0  0  0  0  0
   -0.2420   58.8356   65.2898 C   0  0  0  0  0  0  0  0  0  0  0  0
    0.1217   62.2902   69.9045 C   0  0  0  0  0  0  0  0  0  0  0  0
    1.1712   62.0288   68.7718 C   0  0  0  0  0  0  0  0  0  0  0  0
   -0.0773   62.8643   66.8358 C   0  0  0  0  0  0  0  0  0  0  0  0
    1.7731   59.5891   66.6938 C   0  0  1  0  0  0  0  0  0  0  0  0
    2.7357   59.0551   65.6101 C   0  0  0  0  0  0  0  0  0  0  0  0
    3.9208   61.2697   65.5459 C   0  0  0  0  0  0  0  0  0  0  0  0
   -0.5925   54.3332   65.5158 C   0  0  0  0  0  0  0  0  0  0  0  0
   -0.1096   53.5958   64.4576 C   0  0  0  0  0  0  0  0  0  0  0  0
    1.1447   52.9690   64.4963 C   0  0  0  0  0  0  0  0  0  0  0  0
    1.4051   53.7604   66.7474 C   0  0  0  0  0  0  0  0  0  0  0  0
    1.3712   52.2294   62.0528 C   0  0  0  0  0  0  0  0  0  0  0  0
    1.9553   51.0487   59.9137 C   0  0  0  0  0  0  0  0  0  0  0  0
   -1.1091   62.2081   69.6595 O   0  0  0  0  0  0  0  0  0  0  0  0
    0.6610   62.8226   70.9445 O   0  0  0  0  0  0  0  0  0  0  0  0
   -1.0495   62.4972   65.6757 C   0  0  0  0  0  0  0  0  0  0  0  0
   -1.0881   63.4094   64.7600 O   0  0  0  0  0  0  0  0  0  0  0  0
   -1.5781   61.3652   65.6219 O   0  0  0  0  0  0  0  0  0  0  0  0
    1.5862   61.1171   66.5058 C   0  0  2  0  0  0  0  0  0  0  0  0
    2.9634   61.8029   66.5950 C   0  0  0  0  0  0  0  0  0  0  0  0
    4.0795   59.7611   65.6599 C   0  0  0  0  0  0  0  0  0  0  0  0
    0.4887   58.7996   66.6337 N   0  3  2  0  0  0  0  0  0  0  0  0
   -1.9749   57.9253   63.9565 O   0  0  0  0  0  0  0  0  0  0  0  0
   -2.5331   58.5044   66.0854 O   0  0  0  0  0  0  0  0  0  0  0  0
    0.7030   57.4119   67.1531 C   0  0  0  0  0  0  0  0  0  0  0  0
   -0.5759   56.6841   67.5718 C   0  0  1  0  0  0  0  0  0  0  0  0
    0.6348   58.2536   70.2720 C   0  0  0  0  0  0  0  0  0  0  0  0
    1.5021   57.8493   71.1165 O   0  0  0  0  0  0  0  0  0  0  0  0
    0.7308   59.2219   69.4990 O   0  0  0  0  0  0  0  0  0  0  0  0
   -2.6276   56.9511   68.8500 C   0  0  0  0  0  0  0  0  0  0  0  0
   -3.5127   57.9748   69.6206 C   0  0  0  0  0  0  0  0  0  0  0  0
   -4.6178   57.4539   70.0161 O   0  0  0  0  0  0  0  0  0  0  0  0
   -3.0777   59.1139   69.9034 O   0  0  0  0  0  0  0  0  0  0  0  0
   -0.3153   55.1949   67.8338 C   0  0  0  0  0  0  0  0  0  0  0  0
    0.1740   54.4156   66.6610 C   0  0  0  0  0  0  0  0  0  0  0  0
    1.8899   53.0444   65.6710 C   0  0  0  0  0  0  0  0  0  0  0  0
    1.7190   52.2833   63.4163 N   0  0  0  0  0  0  0  0  0  0  0  0
    0.1003   53.2205   61.4261 S   0  0  0  0  0  0  0  0  0  0  0  0
    2.1105   51.3812   61.3519 N   0  0  0  0  0  0  0  0  0  0  0  0
    2.2879   52.3102   59.0786 C   0  0  0  0  0  0  0  0  0  0  0  0
    3.6667   52.6624   59.1902 O   0  0  0  0  0  0  0  0  0  0  0  0
    0.5028   50.5470   59.6446 C   0  0  0  0  0  0  0  0  0  0  0  0
    0.4330   49.1560   59.3517 O   0  0  0  0  0  0  0  0  0  0  0  0
    2.9715   49.9185   59.5849 C   0  0  0  0  0  0  0  0  0  0  0  0
    4.3206   50.1573   59.9994 O   0  0  0  0  0  0  0  0  0  0  0  0
    0.0541   56.2248   70.0679 H   0  0  0  0  0  0  0  0  0  0  0  0
   -1.1653   57.1562   70.8652 H   0  0  0  0  0  0  0  0  0  0  0  0
   -0.0030   59.7774   64.7862 H   0  0  0  0  0  0  0  0  0  0  0  0
    0.2983   58.0758   64.6956 H   0  0  0  0  0  0  0  0  0  0  0  0
    1.7668   62.9489   68.6926 H   0  0  0  0  0  0  0  0  0  0  0  0
    1.8636   61.2538   69.1233 H   0  0  0  0  0  0  0  0  0  0  0  0
    0.6740   63.5473   66.4212 H   0  0  0  0  0  0  0  0  0  0  0  0
   -0.6344   63.4331   67.5859 H   0  0  0  0  0  0  0  0  0  0  0  0
    2.2283   59.4053   67.6747 H   0  0  0  0  0  0  0  0  0  0  0  0
    2.3056   59.2081   64.6129 H   0  0  0  0  0  0  0  0  0  0  0  0
    2.9054   57.9796   65.7196 H   0  0  0  0  0  0  0  0  0  0  0  0
    4.8933   61.7533   65.6745 H   0  0  0  0  0  0  0  0  0  0  0  0
    3.5444   61.5339   64.5509 H   0  0  0  0  0  0  0  0  0  0  0  0
   -1.5492   54.8535   65.4201 H   0  0  0  0  0  0  0  0  0  0  0  0
   -0.7834   53.5868   63.6193 H   0  0  0  0  0  0  0  0  0  0  0  0
    1.9916   53.8345   67.6583 H   0  0  0  0  0  0  0  0  0  0  0  0
    1.2355   61.2644   65.4778 H   0  0  0  0  0  0  0  0  0  0  0  0
    2.8558   62.8852   66.4720 H   0  0  0  0  0  0  0  0  0  0  0  0
    3.4154   61.6279   67.5788 H   0  0  0  0  0  0  0  0  0  0  0  0
    4.7099   59.3954   64.8437 H   0  0  0  0  0  0  0  0  0  0  0  0
    4.5772   59.5068   66.6030 H   0  0  0  0  0  0  0  0  0  0  0  0
    1.4171   57.4443   67.9806 H   0  0  0  0  0  0  0  0  0  0  0  0
    1.2132   56.8613   66.3574 H   0  0  0  0  0  0  0  0  0  0  0  0
   -1.2466   56.7191   66.7138 H   0  0  0  0  0  0  0  0  0  0  0  0
   -2.7081   55.9904   69.3718 H   0  0  0  0  0  0  0  0  0  0  0  0
   -3.0910   56.8068   67.8660 H   0  0  0  0  0  0  0  0  0  0  0  0
   -1.2311   54.7046   68.1788 H   0  0  0  0  0  0  0  0  0  0  0  0
    0.4428   55.0763   68.6062 H   0  0  0  0  0  0  0  0  0  0  0  0
    2.8605   52.5700   65.7592 H   0  0  0  0  0  0  0  0  0  0  0  0
    2.6046   51.8654   63.6663 H   0  0  0  0  0  0  0  0  0  0  0  0
   -0.1478   52.7569   60.2120 H   0  0  0  0  0  0  0  0  0  0  0  0
    1.7244   53.1874   59.3906 H   0  0  0  0  0  0  0  0  0  0  0  0
    2.0475   52.1490   58.0235 H   0  0  0  0  0  0  0  0  0  0  0  0
    4.1240   52.2788   58.4246 H   0  0  0  0  0  0  0  0  0  0  0  0
    0.0641   51.0831   58.7978 H   0  0  0  0  0  0  0  0  0  0  0  0
   -0.1507   50.6897   60.5108 H   0  0  0  0  0  0  0  0  0  0  0  0
   -0.5135   48.9328   59.2834 H   0  0  0  0  0  0  0  0  0  0  0  0
    2.9570   49.7242   58.5066 H   0  0  0  0  0  0  0  0  0  0  0  0
    2.6888   49.0017   60.1070 H   0  0  0  0  0  0  0  0  0  0  0  0
    4.6225   51.0303   59.6909 H   0  0  0  0  0  0  0  0  0  0  0  0
   -0.1611   59.2825   67.3225 H   0  0  0  0  0  0  0  0  0  0  0  0
    2.8819   50.9369   61.8389 H   0  0  0  0  0  0  0  0  0  0  0  0
  1  3  1  0  0  0  0
  1 30  1  0  0  0  0
  1 34  1  0  0  0  0
  2  7  1  0  0  0  0
  2  8  1  0  0  0  0
  2 23  1  0  0  0  0
  3 31  1  0  0  0  0
  3 50  1  0  0  0  0
  3 51  1  0  0  0  0
  4  5  1  0  0  0  0
  4 27  2  0  0  0  0
  4 28  1  0  0  0  0
  5 26  1  0  0  0  0
  5 52  1  0  0  0  0
  5 53  1  0  0  0  0
  6  7  1  0  0  0  0
  6 18  2  0  0  0  0
  6 19  1  0  0  0  0
  7 54  1  0  0  0  0
  7 55  1  0  0  0  0
  8 20  1  0  0  0  0
  8 56  1  0  0  0  0
  8 57  1  0  0  0  0
  9 10  1  0  0  0  0
  9 23  1  0  0  0  0
  9 26  1  0  0  0  0
  9 58  1  1  0  0  0
 10 25  1  0  0  0  0
 10 59  1  0  0  0  0
 10 60  1  0  0  0  0
 11 24  1  0  0  0  0
 11 25  1  0  0  0  0
 11 61  1  0  0  0  0
 11 62  1  0  0  0  0
 12 13  2  0  0  0  0
 12 39  1  0  0  0  0
 12 63  1  0  0  0  0
 13 14  1  0  0  0  0
 13 64  1  0  0  0  0
 14 40  2  0  0  0  0
 14 41  1  0  0  0  0
 15 39  2  0  0  0  0
 15 40  1  0  0  0  0
 15 65  1  0  0  0  0
 16 41  1  0  0  0  0
 16 42  1  0  0  0  0
 16 43  2  0  0  0  0
 17 43  1  0  0  0  0
 17 44  1  0  0  0  0
 17 46  1  0  0  0  0
 17 48  1  0  0  0  0
 20 21  2  0  0  0  0
 20 22  1  0  0  0  0
 23 24  1  0  0  0  0
 23 66  1  6  0  0  0
 24 67  1  0  0  0  0
 24 68  1  0  0  0  0
 25 69  1  0  0  0  0
 25 70  1  0  0  0  0
 26 29  1  0  0  0  0
 26 90  1  1  0  0  0
 29 30  1  0  0  0  0
 29 71  1  0  0  0  0
 29 72  1  0  0  0  0
 30 38  1  0  0  0  0
 30 73  1  6  0  0  0
 31 32  2  0  0  0  0
 31 33  1  0  0  0  0
 34 35  1  0  0  0  0
 34 74  1  0  0  0  0
 34 75  1  0  0  0  0
 35 36  2  0  0  0  0
 35 37  1  0  0  0  0
 38 39  1  0  0  0  0
 38 76  1  0  0  0  0
 38 77  1  0  0  0  0
 40 78  1  0  0  0  0
 41 79  1  0  0  0  0
 42 80  1  0  0  0  0
 43 91  1  0  0  0  0
 44 45  1  0  0  0  0
 44 81  1  0  0  0  0
 44 82  1  0  0  0  0
 45 83  1  0  0  0  0
 46 47  1  0  0  0  0
 46 84  1  0  0  0  0
 46 85  1  0  0  0  0
 47 86  1  0  0  0  0
 48 49  1  0  0  0  0
 48 87  1  0  0  0  0
 48 88  1  0  0  0  0
 49 89  1  0  0  0  0
M  CHG  1  26   1
M  END
$$$$
