LJG
 OpenBabel04091911023D

 75 76  0  0  0  0  0  0  0  0999 V2000
   13.4808  -18.6292  -17.9477 N   0  3  0  0  0  0  0  0  0  0  0  0
   12.3678  -18.1881  -18.8619 C   0  0  0  0  0  0  0  0  0  0  0  0
   11.1441  -17.6317  -18.1345 C   0  0  0  0  0  0  0  0  0  0  0  0
    9.0979  -19.0955  -18.8447 C   0  0  0  0  0  0  0  0  0  0  0  0
    9.0039  -17.6621  -20.9064 C   0  0  0  0  0  0  0  0  0  0  0  0
    9.4235  -17.7821  -15.3949 C   0  0  0  0  0  0  0  0  0  0  0  0
    7.6545  -16.2806  -14.7570 C   0  0  0  0  0  0  0  0  0  0  0  0
    9.8981  -15.9357  -13.9208 C   0  0  0  0  0  0  0  0  0  0  0  0
   14.4079  -22.2402  -15.7453 C   0  0  0  0  0  0  0  0  0  0  0  0
   13.7934  -22.0066  -13.2983 C   0  0  0  0  0  0  0  0  0  0  0  0
   14.9690  -24.5260  -18.7419 C   0  0  0  0  0  0  0  0  0  0  0  0
   14.3831  -19.6318  -18.6138 C   0  0  0  0  0  0  0  0  0  0  0  0
   15.0009  -20.6718  -17.6813 C   0  0  0  0  0  0  0  0  0  0  0  0
   14.1187  -21.6912  -17.1300 N   0  0  0  0  0  0  0  0  0  0  0  0
   13.0882  -22.5964  -18.1293 S   0  0  0  0  0  0  0  0  0  0  0  0
   12.4116  -23.5118  -17.2962 O   0  0  0  0  0  0  0  0  0  0  0  0
   12.3302  -21.6415  -18.9507 O   0  0  0  0  0  0  0  0  0  0  0  0
   14.2107  -23.4511  -19.2106 C   0  0  0  0  0  0  0  0  0  0  0  0
   14.2946  -23.0558  -20.5455 C   0  0  0  0  0  0  0  0  0  0  0  0
   15.1606  -23.7277  -21.4130 C   0  0  0  0  0  0  0  0  0  0  0  0
   15.9376  -24.8027  -20.9679 C   0  0  0  0  0  0  0  0  0  0  0  0
   16.8064  -25.4353  -21.8324 N   0  0  0  0  0  0  0  0  0  0  0  0
   15.8126  -25.2120  -19.6341 C   0  0  0  0  0  0  0  0  0  0  0  0
   14.1586  -21.2362  -14.5883 C   0  0  0  0  0  0  0  0  0  0  0  0
   15.4091  -20.3950  -14.3086 C   0  0  0  0  0  0  0  0  0  0  0  0
   10.1274  -18.6462  -17.8692 N   0  0  0  0  0  0  0  0  0  0  0  0
    9.9409  -19.2212  -16.2913 S   0  0  0  0  0  0  0  0  0  0  0  0
    8.8877  -20.1734  -16.2857 O   0  0  0  0  0  0  0  0  0  0  0  0
   11.3134  -19.5225  -15.8685 O   0  0  0  0  0  0  0  0  0  0  0  0
   10.3294  -17.0831  -14.5936 C   0  0  0  0  0  0  0  0  0  0  0  0
    8.5581  -15.5293  -13.9915 C   0  0  0  0  0  0  0  0  0  0  0  0
    8.1341  -14.4033  -13.3185 N   0  0  0  0  0  0  0  0  0  0  0  0
    8.0850  -17.3986  -15.4790 C   0  0  0  0  0  0  0  0  0  0  0  0
    9.4818  -18.9937  -20.3257 C   0  0  0  0  0  0  0  0  0  0  0  0
    8.8622  -20.1516  -21.1242 C   0  0  0  0  0  0  0  0  0  0  0  0
   14.0303  -17.8077  -17.6566 H   0  0  0  0  0  0  0  0  0  0  0  0
   12.1047  -19.0564  -19.4496 H   0  0  0  0  0  0  0  0  0  0  0  0
   12.7866  -17.4119  -19.5063 H   0  0  0  0  0  0  0  0  0  0  0  0
   10.7125  -16.8419  -18.7406 H   0  0  0  0  0  0  0  0  0  0  0  0
   11.4670  -17.1981  -17.1866 H   0  0  0  0  0  0  0  0  0  0  0  0
    8.1767  -18.5313  -18.6694 H   0  0  0  0  0  0  0  0  0  0  0  0
    8.9070  -20.1539  -18.6164 H   0  0  0  0  0  0  0  0  0  0  0  0
    9.2649  -17.5754  -21.9681 H   0  0  0  0  0  0  0  0  0  0  0  0
    9.4579  -16.8196  -20.3772 H   0  0  0  0  0  0  0  0  0  0  0  0
    7.9131  -17.5692  -20.8134 H   0  0  0  0  0  0  0  0  0  0  0  0
    6.6034  -15.9988  -14.7870 H   0  0  0  0  0  0  0  0  0  0  0  0
   10.6044  -15.3598  -13.3248 H   0  0  0  0  0  0  0  0  0  0  0  0
   15.4415  -22.5868  -15.6766 H   0  0  0  0  0  0  0  0  0  0  0  0
   13.7477  -23.0939  -15.5704 H   0  0  0  0  0  0  0  0  0  0  0  0
   13.6166  -21.3199  -12.4578 H   0  0  0  0  0  0  0  0  0  0  0  0
   14.6030  -22.6935  -13.0106 H   0  0  0  0  0  0  0  0  0  0  0  0
   12.8806  -22.6020  -13.4440 H   0  0  0  0  0  0  0  0  0  0  0  0
   14.9098  -24.8391  -17.7019 H   0  0  0  0  0  0  0  0  0  0  0  0
   15.1940  -19.0556  -19.0665 H   0  0  0  0  0  0  0  0  0  0  0  0
   13.8160  -20.1059  -19.4030 H   0  0  0  0  0  0  0  0  0  0  0  0
   15.3855  -20.1326  -16.8475 H   0  0  0  0  0  0  0  0  0  0  0  0
   15.8162  -21.1356  -18.2253 H   0  0  0  0  0  0  0  0  0  0  0  0
   13.6842  -22.2368  -20.9177 H   0  0  0  0  0  0  0  0  0  0  0  0
   15.2182  -23.4175  -22.4542 H   0  0  0  0  0  0  0  0  0  0  0  0
   17.3802  -26.2099  -21.5225 H   0  0  0  0  0  0  0  0  0  0  0  0
   16.8819  -25.1421  -22.7991 H   0  0  0  0  0  0  0  0  0  0  0  0
   16.3656  -26.0833  -19.2806 H   0  0  0  0  0  0  0  0  0  0  0  0
   13.3242  -20.5710  -14.8286 H   0  0  0  0  0  0  0  0  0  0  0  0
   15.7003  -19.8134  -15.1756 H   0  0  0  0  0  0  0  0  0  0  0  0
   16.2619  -21.0313  -14.0407 H   0  0  0  0  0  0  0  0  0  0  0  0
   15.2440  -19.6746  -13.5011 H   0  0  0  0  0  0  0  0  0  0  0  0
   11.3588  -17.4214  -14.4893 H   0  0  0  0  0  0  0  0  0  0  0  0
    7.1686  -14.1046  -13.3656 H   0  0  0  0  0  0  0  0  0  0  0  0
    8.7771  -13.8689  -12.7482 H   0  0  0  0  0  0  0  0  0  0  0  0
    7.3881  -17.9663  -16.0902 H   0  0  0  0  0  0  0  0  0  0  0  0
   10.5569  -19.0647  -20.4511 H   0  0  0  0  0  0  0  0  0  0  0  0
    9.1987  -21.1228  -20.7342 H   0  0  0  0  0  0  0  0  0  0  0  0
    9.1490  -20.0960  -22.1837 H   0  0  0  0  0  0  0  0  0  0  0  0
    7.7665  -20.1199  -21.0639 H   0  0  0  0  0  0  0  0  0  0  0  0
   13.0678  -19.0531  -17.0967 H   0  0  0  0  0  0  0  0  0  0  0  0
  1  2  1  0  0  0  0
  1 12  1  0  0  0  0
  1 36  1  0  0  0  0
  1 75  1  0  0  0  0
  2  3  1  0  0  0  0
  2 37  1  0  0  0  0
  2 38  1  0  0  0  0
  3 26  1  0  0  0  0
  3 39  1  0  0  0  0
  3 40  1  0  0  0  0
  4 26  1  0  0  0  0
  4 34  1  0  0  0  0
  4 41  1  0  0  0  0
  4 42  1  0  0  0  0
  5 34  1  0  0  0  0
  5 43  1  0  0  0  0
  5 44  1  0  0  0  0
  5 45  1  0  0  0  0
  6 27  1  0  0  0  0
  6 30  2  0  0  0  0
  6 33  1  0  0  0  0
  7 31  1  0  0  0  0
  7 33  2  0  0  0  0
  7 46  1  0  0  0  0
  8 30  1  0  0  0  0
  8 31  2  0  0  0  0
  8 47  1  0  0  0  0
  9 14  1  0  0  0  0
  9 24  1  0  0  0  0
  9 48  1  0  0  0  0
  9 49  1  0  0  0  0
 10 24  1  0  0  0  0
 10 50  1  0  0  0  0
 10 51  1  0  0  0  0
 10 52  1  0  0  0  0
 11 18  2  0  0  0  0
 11 23  1  0  0  0  0
 11 53  1  0  0  0  0
 12 13  1  0  0  0  0
 12 54  1  0  0  0  0
 12 55  1  0  0  0  0
 13 14  1  0  0  0  0
 13 56  1  0  0  0  0
 13 57  1  0  0  0  0
 14 15  1  0  0  0  0
 15 16  2  0  0  0  0
 15 17  2  0  0  0  0
 15 18  1  0  0  0  0
 18 19  1  0  0  0  0
 19 20  2  0  0  0  0
 19 58  1  0  0  0  0
 20 21  1  0  0  0  0
 20 59  1  0  0  0  0
 21 22  1  0  0  0  0
 21 23  2  0  0  0  0
 22 60  1  0  0  0  0
 22 61  1  0  0  0  0
 23 62  1  0  0  0  0
 24 25  1  0  0  0  0
 24 63  1  0  0  0  0
 25 64  1  0  0  0  0
 25 65  1  0  0  0  0
 25 66  1  0  0  0  0
 26 27  1  0  0  0  0
 27 28  2  0  0  0  0
 27 29  2  0  0  0  0
 30 67  1  0  0  0  0
 31 32  1  0  0  0  0
 32 68  1  0  0  0  0
 32 69  1  0  0  0  0
 33 70  1  0  0  0  0
 34 35  1  0  0  0  0
 34 71  1  0  0  0  0
 35 72  1  0  0  0  0
 35 73  1  0  0  0  0
 35 74  1  0  0  0  0
M  CHG  1   1   1
M  END
$$$$
