LJH
 OpenBabel04091911023D

 77 80  0  0  0  0  0  0  0  0999 V2000
  -13.3776   18.9149  -17.8601 N   0  3  0  0  0  0  0  0  0  0  0  0
  -14.2707   19.9594  -18.4667 C   0  0  0  0  0  0  0  0  0  0  0  0
  -14.8646   20.9463  -17.4538 C   0  0  0  0  0  0  0  0  0  0  0  0
   -8.7508   18.9344  -18.0102 C   0  0  0  0  0  0  0  0  0  0  0  0
   -8.4982   18.5925  -20.4937 C   0  0  0  0  0  0  0  0  0  0  0  0
   -9.8144   20.9894  -21.0362 C   0  0  0  0  0  0  0  0  0  0  0  0
   -8.1559   17.2578  -15.0315 C   0  0  0  0  0  0  0  0  0  0  0  0
  -16.1349   20.4112  -13.2440 C   0  0  0  0  0  0  0  0  0  0  0  0
  -12.1285   18.6612  -18.6808 C   0  0  0  0  0  0  0  0  0  0  0  0
  -11.0798   17.8391  -17.9131 C   0  0  0  0  0  0  0  0  0  0  0  0
  -10.0349   18.6932  -17.3242 N   0  0  0  0  0  0  0  0  0  0  0  0
  -15.7241   21.2166  -14.3093 C   0  0  0  0  0  0  0  0  0  0  0  0
  -13.4844   21.2011  -13.4387 C   0  0  0  0  0  0  0  0  0  0  0  0
  -13.9073   20.4568  -12.3348 C   0  0  0  0  0  0  0  0  0  0  0  0
  -15.2476   20.1039  -12.2130 C   0  0  0  0  0  0  0  0  0  0  0  0
  -13.8919   22.4602  -15.5781 C   0  0  0  0  0  0  0  0  0  0  0  0
  -13.9169   21.9433  -16.9682 N   0  0  0  0  0  0  0  0  0  0  0  0
   -7.7354   16.0545  -14.4592 C   0  0  0  0  0  0  0  0  0  0  0  0
   -9.5179   17.5875  -14.9708 C   0  0  0  0  0  0  0  0  0  0  0  0
   -9.5733   20.5968  -19.7176 C   0  0  0  0  0  0  0  0  0  0  0  0
   -8.9368   19.3853  -19.4337 C   0  0  0  0  0  0  0  0  0  0  0  0
   -8.6895   19.0051  -21.8131 C   0  0  0  0  0  0  0  0  0  0  0  0
  -10.0776   19.0937  -15.6966 S   0  0  0  0  0  0  0  0  0  0  0  0
   -9.1546   20.1356  -15.4137 O   0  0  0  0  0  0  0  0  0  0  0  0
  -11.5222   19.2336  -15.4155 O   0  0  0  0  0  0  0  0  0  0  0  0
  -10.4507   16.7535  -14.3603 C   0  0  0  0  0  0  0  0  0  0  0  0
  -10.0156   15.5759  -13.7770 C   0  0  0  0  0  0  0  0  0  0  0  0
   -8.6667   15.2035  -13.8410 C   0  0  0  0  0  0  0  0  0  0  0  0
   -8.2789   13.9934  -13.2865 N   0  0  0  0  0  0  0  0  0  0  0  0
   -9.3238   20.2165  -22.0847 C   0  0  0  0  0  0  0  0  0  0  0  0
  -12.9427   22.7952  -18.0419 S   0  0  0  0  0  0  0  0  0  0  0  0
  -12.1430   21.7864  -18.7270 O   0  0  0  0  0  0  0  0  0  0  0  0
  -12.2909   23.8201  -17.2885 O   0  0  0  0  0  0  0  0  0  0  0  0
  -14.0596   23.5126  -19.1958 C   0  0  0  0  0  0  0  0  0  0  0  0
  -14.8699   24.5710  -18.7872 C   0  0  0  0  0  0  0  0  0  0  0  0
  -15.7505   25.1594  -19.7024 C   0  0  0  0  0  0  0  0  0  0  0  0
  -15.8383   24.7044  -21.0220 C   0  0  0  0  0  0  0  0  0  0  0  0
  -16.7454   25.2851  -21.8842 N   0  0  0  0  0  0  0  0  0  0  0  0
  -15.0108   23.6479  -21.4207 C   0  0  0  0  0  0  0  0  0  0  0  0
  -14.1219   23.0500  -20.5119 C   0  0  0  0  0  0  0  0  0  0  0  0
  -14.3849   21.5971  -14.4397 C   0  0  0  0  0  0  0  0  0  0  0  0
  -13.0850   19.2130  -16.9134 H   0  0  0  0  0  0  0  0  0  0  0  0
  -15.0743   19.4306  -18.9732 H   0  0  0  0  0  0  0  0  0  0  0  0
  -13.6971   20.4657  -19.2290 H   0  0  0  0  0  0  0  0  0  0  0  0
  -15.2427   20.3726  -16.6118 H   0  0  0  0  0  0  0  0  0  0  0  0
  -15.6928   21.4558  -17.9507 H   0  0  0  0  0  0  0  0  0  0  0  0
   -8.1010   18.0507  -17.9774 H   0  0  0  0  0  0  0  0  0  0  0  0
   -8.2223   19.7359  -17.4825 H   0  0  0  0  0  0  0  0  0  0  0  0
   -7.9796   17.6562  -20.2990 H   0  0  0  0  0  0  0  0  0  0  0  0
  -10.3729   21.8988  -21.2412 H   0  0  0  0  0  0  0  0  0  0  0  0
   -7.4429   17.9249  -15.5146 H   0  0  0  0  0  0  0  0  0  0  0  0
  -17.1515   20.0256  -13.2145 H   0  0  0  0  0  0  0  0  0  0  0  0
  -11.7433   19.6273  -18.9643 H   0  0  0  0  0  0  0  0  0  0  0  0
  -12.4560   18.1270  -19.5743 H   0  0  0  0  0  0  0  0  0  0  0  0
  -10.6388   17.1259  -18.6102 H   0  0  0  0  0  0  0  0  0  0  0  0
  -11.5888   17.2824  -17.1223 H   0  0  0  0  0  0  0  0  0  0  0  0
  -16.4580   21.5326  -15.0468 H   0  0  0  0  0  0  0  0  0  0  0  0
  -12.4340   21.4825  -13.5115 H   0  0  0  0  0  0  0  0  0  0  0  0
  -13.1863   20.1476  -11.5817 H   0  0  0  0  0  0  0  0  0  0  0  0
  -15.5998   19.5984  -11.3184 H   0  0  0  0  0  0  0  0  0  0  0  0
  -14.4208   23.4190  -15.5378 H   0  0  0  0  0  0  0  0  0  0  0  0
  -12.8287   22.6484  -15.3650 H   0  0  0  0  0  0  0  0  0  0  0  0
   -6.6769   15.7888  -14.4737 H   0  0  0  0  0  0  0  0  0  0  0  0
   -9.8985   21.2376  -18.9006 H   0  0  0  0  0  0  0  0  0  0  0  0
   -8.3461   18.3777  -22.6335 H   0  0  0  0  0  0  0  0  0  0  0  0
  -11.5062   17.0225  -14.3368 H   0  0  0  0  0  0  0  0  0  0  0  0
  -10.7212   14.9376  -13.2469 H   0  0  0  0  0  0  0  0  0  0  0  0
   -7.3199   13.6901  -13.3330 H   0  0  0  0  0  0  0  0  0  0  0  0
   -8.9613   13.4045  -12.8361 H   0  0  0  0  0  0  0  0  0  0  0  0
   -9.4235   20.5619  -23.1089 H   0  0  0  0  0  0  0  0  0  0  0  0
  -14.8186   24.9480  -17.7681 H   0  0  0  0  0  0  0  0  0  0  0  0
  -16.3777   25.9891  -19.3805 H   0  0  0  0  0  0  0  0  0  0  0  0
  -16.8188   24.9820  -22.8506 H   0  0  0  0  0  0  0  0  0  0  0  0
  -17.3339   26.0457  -21.5822 H   0  0  0  0  0  0  0  0  0  0  0  0
  -15.0509   23.2848  -22.4472 H   0  0  0  0  0  0  0  0  0  0  0  0
  -13.4790   22.2351  -20.8453 H   0  0  0  0  0  0  0  0  0  0  0  0
  -13.8997   18.0389  -17.7623 H   0  0  0  0  0  0  0  0  0  0  0  0
  1  2  1  0  0  0  0
  1  9  1  0  0  0  0
  1 42  1  0  0  0  0
  1 77  1  0  0  0  0
  2  3  1  0  0  0  0
  2 43  1  0  0  0  0
  2 44  1  0  0  0  0
  3 17  1  0  0  0  0
  3 45  1  0  0  0  0
  3 46  1  0  0  0  0
  4 11  1  0  0  0  0
  4 21  1  0  0  0  0
  4 47  1  0  0  0  0
  4 48  1  0  0  0  0
  5 21  2  0  0  0  0
  5 22  1  0  0  0  0
  5 49  1  0  0  0  0
  6 20  2  0  0  0  0
  6 30  1  0  0  0  0
  6 50  1  0  0  0  0
  7 18  2  0  0  0  0
  7 19  1  0  0  0  0
  7 51  1  0  0  0  0
  8 12  2  0  0  0  0
  8 15  1  0  0  0  0
  8 52  1  0  0  0  0
  9 10  1  0  0  0  0
  9 53  1  0  0  0  0
  9 54  1  0  0  0  0
 10 11  1  0  0  0  0
 10 55  1  0  0  0  0
 10 56  1  0  0  0  0
 11 23  1  0  0  0  0
 12 41  1  0  0  0  0
 12 57  1  0  0  0  0
 13 14  1  0  0  0  0
 13 41  2  0  0  0  0
 13 58  1  0  0  0  0
 14 15  2  0  0  0  0
 14 59  1  0  0  0  0
 15 60  1  0  0  0  0
 16 17  1  0  0  0  0
 16 41  1  0  0  0  0
 16 61  1  0  0  0  0
 16 62  1  0  0  0  0
 17 31  1  0  0  0  0
 18 28  1  0  0  0  0
 18 63  1  0  0  0  0
 19 23  1  0  0  0  0
 19 26  2  0  0  0  0
 20 21  1  0  0  0  0
 20 64  1  0  0  0  0
 22 30  2  0  0  0  0
 22 65  1  0  0  0  0
 23 24  2  0  0  0  0
 23 25  2  0  0  0  0
 26 27  1  0  0  0  0
 26 66  1  0  0  0  0
 27 28  2  0  0  0  0
 27 67  1  0  0  0  0
 28 29  1  0  0  0  0
 29 68  1  0  0  0  0
 29 69  1  0  0  0  0
 30 70  1  0  0  0  0
 31 32  2  0  0  0  0
 31 33  2  0  0  0  0
 31 34  1  0  0  0  0
 34 35  2  0  0  0  0
 34 40  1  0  0  0  0
 35 36  1  0  0  0  0
 35 71  1  0  0  0  0
 36 37  2  0  0  0  0
 36 72  1  0  0  0  0
 37 38  1  0  0  0  0
 37 39  1  0  0  0  0
 38 73  1  0  0  0  0
 38 74  1  0  0  0  0
 39 40  2  0  0  0  0
 39 75  1  0  0  0  0
 40 76  1  0  0  0  0
M  CHG  1   1   1
M  END
$$$$
