LL1
 OpenBabel04091911303D

 24 26  0  0  0  0  0  0  0  0999 V2000
    8.1919   10.4872    3.5996 C   0  0  0  0  0  0  0  0  0  0  0  0
    8.5024   10.9247    4.9040 C   0  0  0  0  0  0  0  0  0  0  0  0
    9.8378   11.1463    5.2645 C   0  0  0  0  0  0  0  0  0  0  0  0
   10.8632   10.9512    4.3456 C   0  0  0  0  0  0  0  0  0  0  0  0
   10.5890   10.5245    3.0422 C   0  0  0  0  0  0  0  0  0  0  0  0
    9.2467   10.3105    2.7079 C   0  0  0  0  0  0  0  0  0  0  0  0
    8.6617    9.9206    1.5370 N   0  3  0  0  0  0  0  0  0  0  0  0
    7.3257    9.8260    1.5904 N   0  0  0  0  0  0  0  0  0  0  0  0
    7.0076   10.1613    2.8551 C   0  0  0  0  0  0  0  0  0  0  0  0
    5.5959   10.1729    3.2771 C   0  0  0  0  0  0  0  0  0  0  0  0
    4.5841   10.2596    2.3148 C   0  0  0  0  0  0  0  0  0  0  0  0
    3.2594   10.2613    2.7205 C   0  0  0  0  0  0  0  0  0  0  0  0
    2.8719   10.1933    4.0095 N   0  0  0  0  0  0  0  0  0  0  0  0
    3.8530   10.1043    4.9278 C   0  0  0  0  0  0  0  0  0  0  0  0
    5.2068   10.0814    4.6159 C   0  0  0  0  0  0  0  0  0  0  0  0
    7.7265   11.1087    5.6379 H   0  0  0  0  0  0  0  0  0  0  0  0
   10.0689   11.4801    6.2731 H   0  0  0  0  0  0  0  0  0  0  0  0
   11.8923   11.1416    4.6435 H   0  0  0  0  0  0  0  0  0  0  0  0
   11.3914   10.3745    2.3268 H   0  0  0  0  0  0  0  0  0  0  0  0
    9.1208    9.7150    0.6568 H   0  0  0  0  0  0  0  0  0  0  0  0
    4.8214   10.3211    1.2561 H   0  0  0  0  0  0  0  0  0  0  0  0
    2.4555   10.3144    1.9946 H   0  0  0  0  0  0  0  0  0  0  0  0
    3.5160   10.0436    5.9582 H   0  0  0  0  0  0  0  0  0  0  0  0
    5.9169    9.9715    5.4247 H   0  0  0  0  0  0  0  0  0  0  0  0
  1  2  1  0  0  0  0
  1  6  1  0  0  0  0
  1  9  2  0  0  0  0
  2  3  2  0  0  0  0
  2 16  1  0  0  0  0
  3  4  1  0  0  0  0
  3 17  1  0  0  0  0
  4  5  2  0  0  0  0
  4 18  1  0  0  0  0
  5  6  1  0  0  0  0
  5 19  1  0  0  0  0
  6  7  2  0  0  0  0
  7  8  1  0  0  0  0
  7 20  1  0  0  0  0
  8  9  1  0  0  0  0
  9 10  1  0  0  0  0
 10 11  2  0  0  0  0
 10 15  1  0  0  0  0
 11 12  1  0  0  0  0
 11 21  1  0  0  0  0
 12 13  2  0  0  0  0
 12 22  1  0  0  0  0
 13 14  1  0  0  0  0
 14 15  2  0  0  0  0
 14 23  1  0  0  0  0
 15 24  1  0  0  0  0
M  CHG  1   7   1
M  END
$$$$
