LL2
 OpenBabel04091911303D

 23 24  0  0  0  0  0  0  0  0999 V2000
    8.9263    9.9858    3.0510 C   0  0  0  0  0  0  0  0  0  0  0  0
    9.6688    8.9902    2.3953 C   0  0  0  0  0  0  0  0  0  0  0  0
   10.1314    7.8906    3.1077 C   0  0  0  0  0  0  0  0  0  0  0  0
    9.8364    7.8031    4.4726 C   0  0  0  0  0  0  0  0  0  0  0  0
    9.0911    8.7985    5.1299 C   0  0  0  0  0  0  0  0  0  0  0  0
    8.6273    9.9140    4.4293 C   0  0  0  0  0  0  0  0  0  0  0  0
    7.7654   10.9866    5.1070 C   0  0  0  0  0  0  0  0  0  0  0  0
    6.3089   10.8322    4.7317 C   0  0  0  0  0  0  0  0  0  0  0  0
    5.8463   10.8368    3.0744 S   0  0  0  0  0  0  0  0  0  0  0  0
    5.1533   10.6491    5.4752 C   0  0  0  0  0  0  0  0  0  0  0  0
    3.9630   10.4876    4.7258 N   0  0  0  0  0  0  0  0  0  0  0  0
    4.2082   10.5561    3.4307 C   0  0  0  0  0  0  0  0  0  0  0  0
    3.3046   10.4455    2.4236 N   0  0  0  0  0  0  0  0  0  0  0  0
    8.5596   10.8278    2.4654 H   0  0  0  0  0  0  0  0  0  0  0  0
    9.8849    9.0895    1.3330 H   0  0  0  0  0  0  0  0  0  0  0  0
   10.7147    7.1087    2.6121 H   0  0  0  0  0  0  0  0  0  0  0  0
   10.1935    6.9464    5.0345 H   0  0  0  0  0  0  0  0  0  0  0  0
    8.8818    8.6959    6.1940 H   0  0  0  0  0  0  0  0  0  0  0  0
    8.1249   11.9856    4.7985 H   0  0  0  0  0  0  0  0  0  0  0  0
    7.9011   10.9374    6.2004 H   0  0  0  0  0  0  0  0  0  0  0  0
    5.1285   10.6214    6.5595 H   0  0  0  0  0  0  0  0  0  0  0  0
    2.3334   10.2877    2.6213 H   0  0  0  0  0  0  0  0  0  0  0  0
    3.5788   10.5155    1.4706 H   0  0  0  0  0  0  0  0  0  0  0  0
  1  2  2  0  0  0  0
  1  6  1  0  0  0  0
  1 14  1  0  0  0  0
  2  3  1  0  0  0  0
  2 15  1  0  0  0  0
  3  4  2  0  0  0  0
  3 16  1  0  0  0  0
  4  5  1  0  0  0  0
  4 17  1  0  0  0  0
  5  6  2  0  0  0  0
  5 18  1  0  0  0  0
  6  7  1  0  0  0  0
  7  8  1  0  0  0  0
  7 19  1  0  0  0  0
  7 20  1  0  0  0  0
  8  9  1  0  0  0  0
  8 10  2  0  0  0  0
  9 12  1  0  0  0  0
 10 11  1  0  0  0  0
 10 21  1  0  0  0  0
 11 12  2  0  0  0  0
 12 13  1  0  0  0  0
 13 22  1  0  0  0  0
 13 23  1  0  0  0  0
M  END
$$$$
