LSW
 OpenBabel04091913323D

 70 72  0  0  1  0  0  0  0  0999 V2000
   42.5366    5.9733  114.3942 C   0  0  0  0  0  0  0  0  0  0  0  0
   42.8912    8.4943  114.0497 N   0  3  0  0  0  0  0  0  0  0  0  0
   42.9083    4.9163  113.8383 O   0  0  0  0  0  0  0  0  0  0  0  0
   43.5612    7.1433  114.3812 C   0  0  1  0  0  0  0  0  0  0  0  0
   44.2004    7.2729  115.7446 C   0  0  0  0  0  0  0  0  0  0  0  0
   40.8918   14.4830  111.7987 N   0  3  0  0  0  0  0  0  0  0  0  0
   45.8525    9.1421  108.6681 O   0  0  0  0  0  0  0  0  0  0  0  0
   44.5444    8.4706  111.9461 O   0  0  0  0  0  0  0  0  0  0  0  0
   44.0079   10.2782  109.4114 O   0  0  0  0  0  0  0  0  0  0  0  0
   46.9143    6.0063  119.9251 C   0  0  0  0  0  0  0  0  0  0  0  0
   46.5815    4.8138  119.2840 C   0  0  0  0  0  0  0  0  0  0  0  0
   46.6325    7.2275  119.3031 C   0  0  0  0  0  0  0  0  0  0  0  0
   38.2770    9.4666  108.1882 C   0  0  0  0  0  0  0  0  0  0  0  0
   39.4559   10.2082  108.2200 C   0  0  0  0  0  0  0  0  0  0  0  0
   45.9712    4.8311  118.0283 C   0  0  0  0  0  0  0  0  0  0  0  0
   46.0333    7.2426  118.0492 C   0  0  0  0  0  0  0  0  0  0  0  0
   38.2996    8.0702  108.1001 C   0  0  0  0  0  0  0  0  0  0  0  0
   40.6971    9.5718  108.1552 C   0  0  0  0  0  0  0  0  0  0  0  0
   41.2468    5.9712  107.9101 C   0  0  0  0  0  0  0  0  0  0  0  0
   41.7675   13.3272  111.4484 C   0  0  0  0  0  0  0  0  0  0  0  0
   41.0756   12.0326  111.8559 C   0  0  0  0  0  0  0  0  0  0  0  0
   42.0787   10.9453  112.2594 C   0  0  0  0  0  0  0  0  0  0  0  0
   45.0761    6.0470  116.0278 C   0  0  0  0  0  0  0  0  0  0  0  0
   41.3628    9.6039  112.4375 C   0  0  0  0  0  0  0  0  0  0  0  0
   43.2873    7.5478  107.9340 C   0  0  0  0  0  0  0  0  0  0  0  0
   42.9486    7.8841  110.4027 N   0  0  0  0  0  0  0  0  0  0  0  0
   44.6752    9.2350  109.1089 C   0  0  0  0  0  0  0  0  0  0  0  0
   43.3714    8.2539  111.6394 C   0  0  0  0  0  0  0  0  0  0  0  0
   45.6895    6.0524  117.4005 C   0  0  0  0  0  0  0  0  0  0  0  0
   41.8171    7.2262  107.9498 C   0  0  2  0  0  0  0  0  0  0  0  0
   39.5521    7.4488  108.0338 C   0  0  2  0  0  0  0  0  0  0  0  0
   40.7452    8.1683  108.0434 C   0  0  1  0  0  0  0  0  0  0  0  0
   42.2670    8.3957  112.6807 C   0  0  1  0  0  0  0  0  0  0  0  0
   43.9122    7.8741  109.2980 C   0  0  2  0  0  0  0  0  0  0  0  0
   41.4067    6.3459  114.8395 O   0  0  0  0  0  0  0  0  0  0  0  0
   39.8861    6.1158  107.9435 N   0  3  0  0  0  0  0  0  0  0  0  0
   42.1533    8.6069  114.7545 H   0  0  0  0  0  0  0  0  0  0  0  0
   44.3405    6.9721  113.6359 H   0  0  0  0  0  0  0  0  0  0  0  0
   43.4338    7.3783  116.5228 H   0  0  0  0  0  0  0  0  0  0  0  0
   44.8126    8.1835  115.7607 H   0  0  0  0  0  0  0  0  0  0  0  0
   41.3396   15.3686  111.5294 H   0  0  0  0  0  0  0  0  0  0  0  0
   39.9851   14.4378  111.3143 H   0  0  0  0  0  0  0  0  0  0  0  0
   47.3937    5.9888  120.8901 H   0  0  0  0  0  0  0  0  0  0  0  0
   46.8030    3.8650  119.7637 H   0  0  0  0  0  0  0  0  0  0  0  0
   46.8878    8.1611  119.7954 H   0  0  0  0  0  0  0  0  0  0  0  0
   37.3182    9.9780  108.2219 H   0  0  0  0  0  0  0  0  0  0  0  0
   39.4183   11.2914  108.2782 H   0  0  0  0  0  0  0  0  0  0  0  0
   45.7268    3.8912  117.5452 H   0  0  0  0  0  0  0  0  0  0  0  0
   45.8326    8.2082  117.5956 H   0  0  0  0  0  0  0  0  0  0  0  0
   37.3785    7.4970  108.0713 H   0  0  0  0  0  0  0  0  0  0  0  0
   41.6224   10.1450  108.1810 H   0  0  0  0  0  0  0  0  0  0  0  0
   41.7073    4.9935  107.8554 H   0  0  0  0  0  0  0  0  0  0  0  0
   42.7080   13.4870  111.9805 H   0  0  0  0  0  0  0  0  0  0  0  0
   41.9301   13.3777  110.3680 H   0  0  0  0  0  0  0  0  0  0  0  0
   40.4785   11.6768  111.0039 H   0  0  0  0  0  0  0  0  0  0  0  0
   40.3820   12.1933  112.6859 H   0  0  0  0  0  0  0  0  0  0  0  0
   42.5785   11.2349  113.1915 H   0  0  0  0  0  0  0  0  0  0  0  0
   42.8530   10.8660  111.4952 H   0  0  0  0  0  0  0  0  0  0  0  0
   45.8828    5.9936  115.2843 H   0  0  0  0  0  0  0  0  0  0  0  0
   44.4733    5.1400  115.9201 H   0  0  0  0  0  0  0  0  0  0  0  0
   40.7697    9.4012  111.5371 H   0  0  0  0  0  0  0  0  0  0  0  0
   40.6500    9.6906  113.2676 H   0  0  0  0  0  0  0  0  0  0  0  0
   43.4397    8.3682  107.2240 H   0  0  0  0  0  0  0  0  0  0  0  0
   43.8165    6.6841  107.5108 H   0  0  0  0  0  0  0  0  0  0  0  0
   41.9646    7.7859  110.1956 H   0  0  0  0  0  0  0  0  0  0  0  0
   41.6395    7.4997  112.6576 H   0  0  0  0  0  0  0  0  0  0  0  0
   44.6456    7.0968  109.5574 H   0  0  0  0  0  0  0  0  0  0  0  0
   39.2219    5.3552  107.9163 H   0  0  0  0  0  0  0  0  0  0  0  0
   43.6024    9.2294  114.0443 H   0  0  0  0  0  0  0  0  0  0  0  0
   40.7113   14.5275  112.8097 H   0  0  0  0  0  0  0  0  0  0  0  0
  1  3  2  0  0  0  0
  1  4  1  0  0  0  0
  1 35  1  0  0  0  0
  2  4  1  0  0  0  0
  2 33  1  0  0  0  0
  2 37  1  0  0  0  0
  2 69  1  0  0  0  0
  4  5  1  0  0  0  0
  4 38  1  6  0  0  0
  5 23  1  0  0  0  0
  5 39  1  0  0  0  0
  5 40  1  0  0  0  0
  6 20  1  0  0  0  0
  6 41  1  0  0  0  0
  6 42  1  0  0  0  0
  6 70  1  0  0  0  0
  7 27  2  0  0  0  0
  8 28  2  0  0  0  0
  9 27  1  0  0  0  0
 10 11  2  0  0  0  0
 10 12  1  0  0  0  0
 10 43  1  0  0  0  0
 11 15  1  0  0  0  0
 11 44  1  0  0  0  0
 12 16  2  0  0  0  0
 12 45  1  0  0  0  0
 13 14  1  0  0  0  0
 13 17  1  0  0  0  0
 13 46  1  0  0  0  0
 14 18  1  0  0  0  0
 14 47  1  0  0  0  0
 15 29  2  0  0  0  0
 15 48  1  0  0  0  0
 16 29  1  0  0  0  0
 16 49  1  0  0  0  0
 17 50  1  0  0  0  0
 18 51  1  0  0  0  0
 19 30  1  0  0  0  0
 19 36  1  0  0  0  0
 19 52  1  0  0  0  0
 20 21  1  0  0  0  0
 20 53  1  0  0  0  0
 20 54  1  0  0  0  0
 21 22  1  0  0  0  0
 21 55  1  0  0  0  0
 21 56  1  0  0  0  0
 22 24  1  0  0  0  0
 22 57  1  0  0  0  0
 22 58  1  0  0  0  0
 23 29  1  0  0  0  0
 23 59  1  0  0  0  0
 23 60  1  0  0  0  0
 24 33  1  0  0  0  0
 24 61  1  0  0  0  0
 24 62  1  0  0  0  0
 25 34  1  0  0  0  0
 25 63  1  0  0  0  0
 25 64  1  0  0  0  0
 26 28  1  0  0  0  0
 26 34  1  0  0  0  0
 26 65  1  0  0  0  0
 27 34  1  0  0  0  0
 28 33  1  0  0  0  0
 30 25  1  1  0  0  0
 30 32  1  0  0  0  0
 31 17  1  6  0  0  0
 31 32  1  0  0  0  0
 31 36  1  0  0  0  0
 32 18  1  1  0  0  0
 33 66  1  6  0  0  0
 34 67  1  1  0  0  0
 36 68  1  0  0  0  0
M  CHG  3   2   1   6   1  36   1
M  END
$$$$
