LWG
 OpenBabel04091913183D

 20 22  0  0  0  0  0  0  0  0999 V2000
    9.0400   81.3665   -1.2127 C   0  0  0  0  0  0  0  0  0  0  0  0
    9.9326   81.3122   -0.1899 N   0  3  0  0  0  0  0  0  0  0  0  0
    9.3148   81.0966   -2.3763 O   0  0  0  0  0  0  0  0  0  0  0  0
    6.4327   81.9203   -1.7630 S   0  0  0  0  0  0  0  0  0  0  0  0
    3.2748   82.6244   -2.0470 Cl  0  0  0  0  0  0  0  0  0  0  0  0
    9.6174   81.6135    1.1167 C   0  0  0  0  0  0  0  0  0  0  0  0
    8.4500   81.9782    1.5441 N   0  0  0  0  0  0  0  0  0  0  0  0
    6.2936   82.8609    3.4253 Cl  0  0  0  0  0  0  0  0  0  0  0  0
    7.4789   82.0438    0.5459 C   0  0  0  0  0  0  0  0  0  0  0  0
    7.7477   81.7628   -0.7552 C   0  0  0  0  0  0  0  0  0  0  0  0
    5.4407   82.3887   -0.4345 C   0  0  0  0  0  0  0  0  0  0  0  0
    4.0824   82.7019   -0.5247 C   0  0  0  0  0  0  0  0  0  0  0  0
    3.4139   83.0675    0.6390 C   0  0  0  0  0  0  0  0  0  0  0  0
    4.0880   83.1211    1.8603 C   0  0  0  0  0  0  0  0  0  0  0  0
    5.4376   82.8040    1.9373 C   0  0  0  0  0  0  0  0  0  0  0  0
    6.1459   82.4241    0.7801 C   0  0  0  0  0  0  0  0  0  0  0  0
   10.8769   81.0386   -0.4233 H   0  0  0  0  0  0  0  0  0  0  0  0
   10.4509   81.5224    1.8185 H   0  0  0  0  0  0  0  0  0  0  0  0
    2.3594   83.3132    0.5985 H   0  0  0  0  0  0  0  0  0  0  0  0
    3.5528   83.4135    2.7557 H   0  0  0  0  0  0  0  0  0  0  0  0
  1  2  1  0  0  0  0
  1  3  2  0  0  0  0
  1 10  1  0  0  0  0
  2  6  1  0  0  0  0
  2 17  1  0  0  0  0
  4 10  1  0  0  0  0
  4 11  1  0  0  0  0
  5 12  1  0  0  0  0
  6  7  2  0  0  0  0
  6 18  1  0  0  0  0
  7  9  1  0  0  0  0
  8 15  1  0  0  0  0
  9 10  2  0  0  0  0
  9 16  1  0  0  0  0
 11 12  2  0  0  0  0
 11 16  1  0  0  0  0
 12 13  1  0  0  0  0
 13 14  2  0  0  0  0
 13 19  1  0  0  0  0
 14 15  1  0  0  0  0
 14 20  1  0  0  0  0
 15 16  2  0  0  0  0
M  CHG  1   2   1
M  END
$$$$
