LYS
 OpenBabel04091913373D

 25 24  0  0  1  0  0  0  0  0999 V2000
   26.2219  -42.5153    3.7919 N   0  3  0  0  0  0  0  0  0  0  0  0
   26.0460  -42.7331    5.2847 C   0  0  2  0  0  0  0  0  0  0  0  0
   24.6055  -43.2352    5.5995 C   0  0  0  0  0  0  0  0  0  0  0  0
   24.2400  -43.1906    6.7928 O   0  0  0  0  0  0  0  0  0  0  0  0
   26.3745  -41.4321    6.0176 C   0  0  0  0  0  0  0  0  0  0  0  0
   25.3776  -40.3003    5.7355 C   0  0  0  0  0  0  0  0  0  0  0  0
   25.7154  -39.0201    6.4985 C   0  0  0  0  0  0  0  0  0  0  0  0
   24.6603  -37.9733    6.1859 C   0  0  0  0  0  0  0  0  0  0  0  0
   24.9644  -36.7199    6.9026 N   0  3  0  0  0  0  0  0  0  0  0  0
   23.9865  -43.4837    4.5158 O   0  0  0  0  0  0  0  0  0  0  0  0
   27.1455  -42.2162    3.4832 H   0  0  0  0  0  0  0  0  0  0  0  0
   25.9490  -43.4136    3.3620 H   0  0  0  0  0  0  0  0  0  0  0  0
   26.7603  -43.5156    5.5508 H   0  0  0  0  0  0  0  0  0  0  0  0
   27.3830  -41.0993    5.7427 H   0  0  0  0  0  0  0  0  0  0  0  0
   26.3945  -41.6225    7.0985 H   0  0  0  0  0  0  0  0  0  0  0  0
   24.3639  -40.6146    6.0159 H   0  0  0  0  0  0  0  0  0  0  0  0
   25.3551  -40.0776    4.6617 H   0  0  0  0  0  0  0  0  0  0  0  0
   26.7105  -38.6677    6.2062 H   0  0  0  0  0  0  0  0  0  0  0  0
   25.7461  -39.2245    7.5745 H   0  0  0  0  0  0  0  0  0  0  0  0
   23.6643  -38.2909    6.5069 H   0  0  0  0  0  0  0  0  0  0  0  0
   24.6387  -37.7333    5.1202 H   0  0  0  0  0  0  0  0  0  0  0  0
   24.2574  -36.0041    6.6933 H   0  0  0  0  0  0  0  0  0  0  0  0
   24.9598  -36.8592    7.9238 H   0  0  0  0  0  0  0  0  0  0  0  0
   25.4553  -41.9139    3.4640 H   0  0  0  0  0  0  0  0  0  0  0  0
   25.8817  -36.3328    6.6415 H   0  0  0  0  0  0  0  0  0  0  0  0
  1  2  1  0  0  0  0
  1 11  1  0  0  0  0
  1 12  1  0  0  0  0
  1 24  1  0  0  0  0
  2  3  1  0  0  0  0
  2  5  1  0  0  0  0
  2 13  1  1  0  0  0
  3  4  2  0  0  0  0
  3 10  1  0  0  0  0
  5  6  1  0  0  0  0
  5 14  1  0  0  0  0
  5 15  1  0  0  0  0
  6  7  1  0  0  0  0
  6 16  1  0  0  0  0
  6 17  1  0  0  0  0
  7  8  1  0  0  0  0
  7 18  1  0  0  0  0
  7 19  1  0  0  0  0
  8  9  1  0  0  0  0
  8 20  1  0  0  0  0
  8 21  1  0  0  0  0
  9 22  1  0  0  0  0
  9 23  1  0  0  0  0
  9 25  1  0  0  0  0
M  CHG  2   1   1   9   1
M  END
$$$$
