M24
 OpenBabel04091913093D

 63 68  0  0  1  0  0  0  0  0999 V2000
  -29.9627   11.5620   -8.2301 P   0  0  1  0  0  0  0  0  0  0  0  0
  -30.5812    6.5981  -16.9344 N   0  0  0  0  0  0  0  0  0  0  0  0
  -30.8835    7.8959  -17.1627 C   0  0  0  0  0  0  0  0  0  0  0  0
  -31.0106    8.9008  -16.2716 N   0  0  0  0  0  0  0  0  0  0  0  0
  -30.7645    8.4659  -15.0251 C   0  0  0  0  0  0  0  0  0  0  0  0
  -30.4505    7.1732  -14.6376 C   0  0  0  0  0  0  0  0  0  0  0  0
  -30.3673    6.2082  -15.6560 C   0  0  0  0  0  0  0  0  0  0  0  0
  -30.1070    4.8756  -15.4074 N   0  0  0  0  0  0  0  0  0  0  0  0
  -30.2963    7.0939  -13.2710 N   0  0  0  0  0  0  0  0  0  0  0  0
  -30.4652    8.3289  -12.8419 C   0  0  0  0  0  0  0  0  0  0  0  0
  -30.7817    9.1882  -13.8611 N   0  3  0  0  0  0  0  0  0  0  0  0
  -31.0732   10.6084  -13.7635 C   0  0  1  0  0  0  0  0  0  0  0  0
  -28.5581   12.0534   -7.9938 O   0  0  0  0  0  0  0  0  0  0  0  0
  -32.5652   10.9258  -13.8686 C   0  0  2  0  0  0  0  0  0  0  0  0
  -32.7705   12.1245  -14.6348 O   0  0  0  0  0  0  0  0  0  0  0  0
  -29.2927    9.0703   -8.7584 C   0  0  0  0  0  0  0  0  0  0  0  0
  -28.7290    9.2239   -9.8260 O   0  0  0  0  0  0  0  0  0  0  0  0
  -29.3711    7.7257   -8.0956 C   0  0  0  0  0  0  0  0  0  0  0  0
  -29.8572    7.5709   -6.7907 C   0  0  0  0  0  0  0  0  0  0  0  0
  -29.9076    6.3014   -6.1982 C   0  0  0  0  0  0  0  0  0  0  0  0
  -29.4681    5.1849   -6.9123 C   0  0  0  0  0  0  0  0  0  0  0  0
  -29.9902    9.9605   -8.0510 O   0  0  0  0  0  0  0  0  0  0  0  0
  -32.9821   11.1130  -12.4133 C   0  0  2  0  0  0  0  0  0  0  0  0
  -34.1106   11.9763  -12.3037 O   0  0  0  0  0  0  0  0  0  0  0  0
  -28.9751    5.3069   -8.2198 C   0  0  0  0  0  0  0  0  0  0  0  0
  -28.9316    6.5900   -8.8006 C   0  0  0  0  0  0  0  0  0  0  0  0
  -28.5294    4.1227   -8.9535 C   0  0  0  0  0  0  0  0  0  0  0  0
  -28.1058    4.1283  -10.2303 N   0  0  0  0  0  0  0  0  0  0  0  0
  -27.8066    2.7920  -10.4939 O   0  0  0  0  0  0  0  0  0  0  0  0
  -28.0760    2.0946   -9.3512 C   0  0  0  0  0  0  0  0  0  0  0  0
  -28.5149    2.8665   -8.3819 N   0  0  0  0  0  0  0  0  0  0  0  0
  -27.8668    0.6496   -9.3808 C   0  0  0  0  0  0  0  0  0  0  0  0
  -27.3065   -0.0137  -10.4916 C   0  0  0  0  0  0  0  0  0  0  0  0
  -27.1308   -1.4067  -10.4805 C   0  0  0  0  0  0  0  0  0  0  0  0
  -31.1093   12.1077   -7.4091 O   0  0  0  0  0  0  0  0  0  0  0  0
  -31.7166   11.6656  -11.7593 C   0  0  2  0  0  0  0  0  0  0  0  0
  -30.6126   11.0908  -12.4935 O   0  0  0  0  0  0  0  0  0  0  0  0
  -27.5118   -2.1529   -9.3683 C   0  0  0  0  0  0  0  0  0  0  0  0
  -28.0688   -1.5085   -8.2647 C   0  0  0  0  0  0  0  0  0  0  0  0
  -28.2365   -0.1257   -8.2800 C   0  0  0  0  0  0  0  0  0  0  0  0
  -28.7756    0.4391   -7.1897 F   0  0  0  0  0  0  0  0  0  0  0  0
  -31.5892   11.2914  -10.2744 C   0  0  0  0  0  0  0  0  0  0  0  0
  -30.3394   11.7560   -9.7936 O   0  0  0  0  0  0  0  0  0  0  0  0
  -31.0533    8.1618  -18.2023 H   0  0  0  0  0  0  0  0  0  0  0  0
  -29.7954    4.6322  -14.4752 H   0  0  0  0  0  0  0  0  0  0  0  0
  -29.9256    4.2828  -16.2004 H   0  0  0  0  0  0  0  0  0  0  0  0
  -30.3660    8.6556  -11.8132 H   0  0  0  0  0  0  0  0  0  0  0  0
  -30.4883   11.1110  -14.5419 H   0  0  0  0  0  0  0  0  0  0  0  0
  -33.1543   10.1463  -14.3616 H   0  0  0  0  0  0  0  0  0  0  0  0
  -33.6507   12.4693  -14.4004 H   0  0  0  0  0  0  0  0  0  0  0  0
  -30.1937    8.4323   -6.2192 H   0  0  0  0  0  0  0  0  0  0  0  0
  -30.2819    6.1938   -5.1859 H   0  0  0  0  0  0  0  0  0  0  0  0
  -29.5171    4.2031   -6.4334 H   0  0  0  0  0  0  0  0  0  0  0  0
  -33.2381   10.1411  -11.9734 H   0  0  0  0  0  0  0  0  0  0  0  0
  -34.8703   11.5356  -12.7206 H   0  0  0  0  0  0  0  0  0  0  0  0
  -28.5532    6.7156   -9.8170 H   0  0  0  0  0  0  0  0  0  0  0  0
  -27.0002    0.5395  -11.3776 H   0  0  0  0  0  0  0  0  0  0  0  0
  -26.6966   -1.9068  -11.3442 H   0  0  0  0  0  0  0  0  0  0  0  0
  -31.6527   12.7552  -11.8656 H   0  0  0  0  0  0  0  0  0  0  0  0
  -27.3791   -3.2325   -9.3579 H   0  0  0  0  0  0  0  0  0  0  0  0
  -28.3754   -2.0726   -7.3895 H   0  0  0  0  0  0  0  0  0  0  0  0
  -31.6100   10.2029  -10.1600 H   0  0  0  0  0  0  0  0  0  0  0  0
  -32.4094   11.7239   -9.6925 H   0  0  0  0  0  0  0  0  0  0  0  0
  1 13  2  1  0  0  0
  1 22  1  0  0  0  0
  1 35  1  0  0  0  0
  1 43  1  0  0  0  0
  2  3  2  0  0  0  0
  2  7  1  0  0  0  0
  3  4  1  0  0  0  0
  3 44  1  0  0  0  0
  4  5  2  0  0  0  0
  5  6  1  0  0  0  0
  5 11  1  0  0  0  0
  6  7  2  0  0  0  0
  6  9  1  0  0  0  0
  7  8  1  0  0  0  0
  8 45  1  0  0  0  0
  8 46  1  0  0  0  0
  9 10  1  0  0  0  0
 10 11  2  0  0  0  0
 10 47  1  0  0  0  0
 11 12  1  0  0  0  0
 12 14  1  0  0  0  0
 12 37  1  0  0  0  0
 12 48  1  6  0  0  0
 14 15  1  0  0  0  0
 14 23  1  0  0  0  0
 14 49  1  6  0  0  0
 15 50  1  0  0  0  0
 16 17  2  0  0  0  0
 16 18  1  0  0  0  0
 16 22  1  0  0  0  0
 18 19  2  0  0  0  0
 18 26  1  0  0  0  0
 19 20  1  0  0  0  0
 19 51  1  0  0  0  0
 20 21  2  0  0  0  0
 20 52  1  0  0  0  0
 21 25  1  0  0  0  0
 21 53  1  0  0  0  0
 23 24  1  0  0  0  0
 23 36  1  0  0  0  0
 23 54  1  1  0  0  0
 24 55  1  0  0  0  0
 25 26  2  0  0  0  0
 25 27  1  0  0  0  0
 26 56  1  0  0  0  0
 27 28  2  0  0  0  0
 27 31  1  0  0  0  0
 28 29  1  0  0  0  0
 29 30  1  0  0  0  0
 30 31  2  0  0  0  0
 30 32  1  0  0  0  0
 32 33  2  0  0  0  0
 32 40  1  0  0  0  0
 33 34  1  0  0  0  0
 33 57  1  0  0  0  0
 34 38  2  0  0  0  0
 34 58  1  0  0  0  0
 36 37  1  0  0  0  0
 36 42  1  0  0  0  0
 36 59  1  6  0  0  0
 38 39  1  0  0  0  0
 38 60  1  0  0  0  0
 39 40  2  0  0  0  0
 39 61  1  0  0  0  0
 40 41  1  0  0  0  0
 42 43  1  0  0  0  0
 42 62  1  0  0  0  0
 42 63  1  0  0  0  0
M  CHG  1  11   1
M  END
$$$$
