M37
 OpenBabel04091913433D

 57 60  0  0  0  0  0  0  0  0999 V2000
   11.2619   45.6343   64.9158 C   0  0  0  0  0  0  0  0  0  0  0  0
    2.7896   44.9800   64.8564 F   0  0  0  0  0  0  0  0  0  0  0  0
    7.1451   44.4679   64.4553 N   0  3  0  0  0  0  0  0  0  0  0  0
    6.4409   38.2702   56.5780 S   0  0  0  0  0  0  0  0  0  0  0  0
   10.4256   46.2418   63.9484 C   0  0  0  0  0  0  0  0  0  0  0  0
    3.3914   43.7531   66.5624 F   0  0  0  0  0  0  0  0  0  0  0  0
    6.6302   39.9034   56.3814 N   0  0  0  0  0  0  0  0  0  0  0  0
    9.0683   45.8587   63.7783 C   0  0  0  0  0  0  0  0  0  0  0  0
    3.9299   45.8682   66.5169 F   0  0  0  0  0  0  0  0  0  0  0  0
    9.4774   42.7675   67.7008 N   0  3  0  0  0  0  0  0  0  0  0  0
    8.3769   42.7990   62.5100 O   0  0  0  0  0  0  0  0  0  0  0  0
    8.5395   44.8331   64.5989 C   0  0  0  0  0  0  0  0  0  0  0  0
    7.7176   42.5662   59.8157 F   0  0  0  0  0  0  0  0  0  0  0  0
    5.5735   38.0778   57.7372 O   0  0  0  0  0  0  0  0  0  0  0  0
    9.3708   44.2190   65.6050 C   0  0  0  0  0  0  0  0  0  0  0  0
    6.4333   41.6530   62.1626 N   0  0  0  0  0  0  0  0  0  0  0  0
    6.0926   37.7818   55.2710 O   0  0  0  0  0  0  0  0  0  0  0  0
   10.7366   44.6155   65.7457 C   0  0  0  0  0  0  0  0  0  0  0  0
    6.2366   45.0295   65.2977 N   0  0  0  0  0  0  0  0  0  0  0  0
    6.9788   40.7737   61.2076 C   0  0  0  0  0  0  0  0  0  0  0  0
    7.2140   42.6624   62.7371 C   0  0  0  0  0  0  0  0  0  0  0  0
    8.7684   43.1170   66.4445 C   0  0  0  0  0  0  0  0  0  0  0  0
    5.0618   44.4212   65.0288 C   0  0  0  0  0  0  0  0  0  0  0  0
    3.7936   44.7624   65.7432 C   0  0  0  0  0  0  0  0  0  0  0  0
    5.2058   43.4398   64.0418 C   0  0  0  0  0  0  0  0  0  0  0  0
    6.5345   43.4569   63.7096 C   0  0  0  0  0  0  0  0  0  0  0  0
    8.2070   40.3520   59.1106 C   0  0  0  0  0  0  0  0  0  0  0  0
    9.9855   37.4115   58.5364 C   0  0  0  0  0  0  0  0  0  0  0  0
    8.1140   38.9535   59.3189 C   0  0  0  0  0  0  0  0  0  0  0  0
    8.7070   37.9974   58.2948 C   0  0  0  0  0  0  0  0  0  0  0  0
    7.4554   38.4965   60.5109 C   0  0  0  0  0  0  0  0  0  0  0  0
    8.0916   37.6743   57.0312 C   0  0  0  0  0  0  0  0  0  0  0  0
    6.8634   39.3827   61.4465 C   0  0  0  0  0  0  0  0  0  0  0  0
   10.6068   36.5535   57.5746 C   0  0  0  0  0  0  0  0  0  0  0  0
    8.7062   36.8061   56.0811 C   0  0  0  0  0  0  0  0  0  0  0  0
    9.9728   36.2444   56.3531 C   0  0  0  0  0  0  0  0  0  0  0  0
    7.6424   41.2416   60.0498 C   0  0  0  0  0  0  0  0  0  0  0  0
   12.3155   45.9548   65.0185 H   0  0  0  0  0  0  0  0  0  0  0  0
   10.8378   47.0294   63.3114 H   0  0  0  0  0  0  0  0  0  0  0  0
    6.8299   40.4817   57.1865 H   0  0  0  0  0  0  0  0  0  0  0  0
    6.4297   40.3099   55.4692 H   0  0  0  0  0  0  0  0  0  0  0  0
    8.4442   46.3498   63.0184 H   0  0  0  0  0  0  0  0  0  0  0  0
    8.9923   42.0112   68.2057 H   0  0  0  0  0  0  0  0  0  0  0  0
   10.4328   42.4428   67.5080 H   0  0  0  0  0  0  0  0  0  0  0  0
    5.4715   41.5289   62.4419 H   0  0  0  0  0  0  0  0  0  0  0  0
   11.3907   44.1499   66.4875 H   0  0  0  0  0  0  0  0  0  0  0  0
    7.7618   43.3976   66.7651 H   0  0  0  0  0  0  0  0  0  0  0  0
    8.7274   42.1910   65.8634 H   0  0  0  0  0  0  0  0  0  0  0  0
    4.4305   42.7978   63.6266 H   0  0  0  0  0  0  0  0  0  0  0  0
    8.7019   40.7501   58.2131 H   0  0  0  0  0  0  0  0  0  0  0  0
   10.5263   37.6201   59.4764 H   0  0  0  0  0  0  0  0  0  0  0  0
    7.3812   37.4204   60.7001 H   0  0  0  0  0  0  0  0  0  0  0  0
    6.3731   39.0048   62.3527 H   0  0  0  0  0  0  0  0  0  0  0  0
   11.5947   36.1255   57.7858 H   0  0  0  0  0  0  0  0  0  0  0  0
    8.1988   36.5753   55.1332 H   0  0  0  0  0  0  0  0  0  0  0  0
   10.4526   35.5758   55.6208 H   0  0  0  0  0  0  0  0  0  0  0  0
    9.5318   43.5780   68.3311 H   0  0  0  0  0  0  0  0  0  0  0  0
  1  5  2  0  0  0  0
  1 18  1  0  0  0  0
  1 38  1  0  0  0  0
  2 24  1  0  0  0  0
  3 12  1  0  0  0  0
  3 19  1  0  0  0  0
  3 26  2  0  0  0  0
  4  7  1  0  0  0  0
  4 14  2  0  0  0  0
  4 17  2  0  0  0  0
  4 32  1  0  0  0  0
  5  8  1  0  0  0  0
  5 39  1  0  0  0  0
  6 24  1  0  0  0  0
  7 40  1  0  0  0  0
  7 41  1  0  0  0  0
  8 12  2  0  0  0  0
  8 42  1  0  0  0  0
  9 24  1  0  0  0  0
 10 22  1  0  0  0  0
 10 43  1  0  0  0  0
 10 44  1  0  0  0  0
 10 57  1  0  0  0  0
 11 21  2  0  0  0  0
 12 15  1  0  0  0  0
 13 37  1  0  0  0  0
 15 18  2  0  0  0  0
 15 22  1  0  0  0  0
 16 20  1  0  0  0  0
 16 21  1  0  0  0  0
 16 45  1  0  0  0  0
 18 46  1  0  0  0  0
 19 23  1  0  0  0  0
 20 33  2  0  0  0  0
 20 37  1  0  0  0  0
 21 26  1  0  0  0  0
 22 47  1  0  0  0  0
 22 48  1  0  0  0  0
 23 24  1  0  0  0  0
 23 25  2  0  0  0  0
 25 26  1  0  0  0  0
 25 49  1  0  0  0  0
 27 29  1  0  0  0  0
 27 37  2  0  0  0  0
 27 50  1  0  0  0  0
 28 30  2  0  0  0  0
 28 34  1  0  0  0  0
 28 51  1  0  0  0  0
 29 30  1  0  0  0  0
 29 31  2  0  0  0  0
 30 32  1  0  0  0  0
 31 33  1  0  0  0  0
 31 52  1  0  0  0  0
 32 35  2  0  0  0  0
 33 53  1  0  0  0  0
 34 36  2  0  0  0  0
 34 54  1  0  0  0  0
 35 36  1  0  0  0  0
 35 55  1  0  0  0  0
 36 56  1  0  0  0  0
M  CHG  2   3   1  10   1
M  END
$$$$
