M3S
 OpenBabel04091912273D

 23 23  0  0  0  0  0  0  0  0999 V2000
   37.9152   42.3719   -3.1217 O   0  0  0  0  0  0  0  0  0  0  0  0
   36.8386   42.6938   -2.6232 C   0  0  0  0  0  0  0  0  0  0  0  0
   35.6657   41.9551   -2.5786 O   0  0  0  0  0  0  0  0  0  0  0  0
   35.7407   40.7347   -3.2693 C   0  0  0  0  0  0  0  0  0  0  0  0
   35.8040   39.5670   -2.4807 C   0  0  0  0  0  0  0  0  0  0  0  0
   35.8264   39.6505   -0.9833 C   0  0  0  0  0  0  0  0  0  0  0  0
   35.8626   38.3252   -3.1228 C   0  0  0  0  0  0  0  0  0  0  0  0
   35.8506   38.2488   -4.5144 C   0  0  0  0  0  0  0  0  0  0  0  0
   35.7753   39.4132   -5.2781 C   0  0  0  0  0  0  0  0  0  0  0  0
   35.7022   40.6801   -4.6720 C   0  0  0  0  0  0  0  0  0  0  0  0
   35.5986   41.9133   -5.5374 C   0  0  0  0  0  0  0  0  0  0  0  0
   34.9484   42.9052   -5.0773 O   0  0  0  0  0  0  0  0  0  0  0  0
   36.1472   41.8563   -6.6836 O   0  0  0  0  0  0  0  0  0  0  0  0
   36.6676   43.9180   -1.7697 C   0  0  0  0  0  0  0  0  0  0  0  0
   35.8866   38.6580   -0.5245 H   0  0  0  0  0  0  0  0  0  0  0  0
   34.9147   40.1324   -0.6147 H   0  0  0  0  0  0  0  0  0  0  0  0
   36.6983   40.2220   -0.6485 H   0  0  0  0  0  0  0  0  0  0  0  0
   35.9187   37.4075   -2.5453 H   0  0  0  0  0  0  0  0  0  0  0  0
   35.9029   37.2833   -5.0111 H   0  0  0  0  0  0  0  0  0  0  0  0
   35.7692   39.3527   -6.3668 H   0  0  0  0  0  0  0  0  0  0  0  0
   37.5642   44.5374   -1.8513 H   0  0  0  0  0  0  0  0  0  0  0  0
   36.5522   43.6088   -0.7278 H   0  0  0  0  0  0  0  0  0  0  0  0
   35.8069   44.5037   -2.0985 H   0  0  0  0  0  0  0  0  0  0  0  0
  1  2  2  0  0  0  0
  2  3  1  0  0  0  0
  2 14  1  0  0  0  0
  3  4  1  0  0  0  0
  4  5  2  0  0  0  0
  4 10  1  0  0  0  0
  5  6  1  0  0  0  0
  5  7  1  0  0  0  0
  6 15  1  0  0  0  0
  6 16  1  0  0  0  0
  6 17  1  0  0  0  0
  7  8  2  0  0  0  0
  7 18  1  0  0  0  0
  8  9  1  0  0  0  0
  8 19  1  0  0  0  0
  9 10  2  0  0  0  0
  9 20  1  0  0  0  0
 10 11  1  0  0  0  0
 11 12  2  0  0  0  0
 11 13  1  0  0  0  0
 14 21  1  0  0  0  0
 14 22  1  0  0  0  0
 14 23  1  0  0  0  0
M  END
$$$$
