M61
 OpenBabel04091914573D

 73 78  0  0  1  0  0  0  0  0999 V2000
   -4.4487   -8.3918  -16.5749 C   0  0  0  0  0  0  0  0  0  0  0  0
   -6.8042   -8.9065  -16.7129 N   0  0  0  0  0  0  0  0  0  0  0  0
   -5.1655   -6.5025  -13.0865 O   0  0  0  0  0  0  0  0  0  0  0  0
   -6.3033   -1.9857  -10.9820 S   0  0  0  0  0  0  0  0  0  0  0  0
   -5.5284   -9.0617  -17.1245 C   0  0  0  0  0  0  0  0  0  0  0  0
   -7.0464   -8.0678  -15.6722 C   0  0  0  0  0  0  0  0  0  0  0  0
   -6.0274   -7.4048  -15.0142 C   0  0  0  0  0  0  0  0  0  0  0  0
   -4.7167   -7.5613  -15.4955 C   0  0  0  0  0  0  0  0  0  0  0  0
   -8.4626   -8.0260  -15.3527 C   0  0  0  0  0  0  0  0  0  0  0  0
   -9.1420   -7.1544  -14.6048 C   0  0  0  0  0  0  0  0  0  0  0  0
   -8.6531   -5.9932  -13.8635 C   0  0  0  0  0  0  0  0  0  0  0  0
   -7.3363   -5.7508  -13.4701 C   0  0  0  0  0  0  0  0  0  0  0  0
   -6.1614   -6.5766  -13.8108 C   0  0  0  0  0  0  0  0  0  0  0  0
   -9.6443   -5.0919  -13.4302 C   0  0  0  0  0  0  0  0  0  0  0  0
   -9.3322   -3.9850  -12.6373 C   0  0  0  0  0  0  0  0  0  0  0  0
   -8.0210   -3.7484  -12.2414 C   0  0  0  0  0  0  0  0  0  0  0  0
   -7.0430   -4.6398  -12.6501 C   0  0  0  0  0  0  0  0  0  0  0  0
   -3.1055   -8.5225  -17.0898 C   0  0  0  0  0  0  0  0  0  0  0  0
   -6.6195   -0.5641  -13.2581 C   0  0  0  0  0  0  0  0  0  0  0  0
   -5.7399   -1.4132  -12.4525 N   0  0  0  0  0  0  0  0  0  0  0  0
   -4.6834   -2.1447  -13.1843 C   0  0  0  0  0  0  0  0  0  0  0  0
   -6.6471   -0.8267  -10.1835 O   0  0  0  0  0  0  0  0  0  0  0  0
   -5.4330   -3.0110  -10.4772 O   0  0  0  0  0  0  0  0  0  0  0  0
   -7.7762   -2.6308  -11.4077 N   0  0  0  0  0  0  0  0  0  0  0  0
   -3.3536   -1.3722  -13.1297 C   0  0  2  0  0  0  0  0  0  0  0  0
   -2.9822   -0.8159  -14.5118 C   0  0  0  0  0  0  0  0  0  0  0  0
   -1.7201   -0.1328  -14.4684 O   0  0  0  0  0  0  0  0  0  0  0  0
   -0.6946   -1.0182  -13.9945 C   0  0  0  0  0  0  0  0  0  0  0  0
   -1.0582   -1.5779  -12.6213 C   0  0  0  0  0  0  0  0  0  0  0  0
   -2.3099   -2.2733  -12.6953 O   0  0  0  0  0  0  0  0  0  0  0  0
   -2.7690   -9.2250  -18.2249 C   0  0  0  0  0  0  0  0  0  0  0  0
   -1.4339   -9.0538  -18.3843 N   0  3  0  0  0  0  0  0  0  0  0  0
   -0.8571   -8.2994  -17.4366 N   0  0  0  0  0  0  0  0  0  0  0  0
   -1.8800   -7.9697  -16.6443 C   0  0  0  0  0  0  0  0  0  0  0  0
   -0.6197   -9.5672  -19.4722 C   0  0  0  0  0  0  0  0  0  0  0  0
    0.4158  -10.5542  -18.9185 C   0  0  0  0  0  0  0  0  0  0  0  0
    1.4243  -10.9612  -19.9679 C   0  0  0  0  0  0  0  0  0  0  0  0
    2.0042   -9.7308  -20.5800 N   0  3  0  0  0  0  0  0  0  0  0  0
    0.9930   -8.8873  -21.2762 C   0  0  0  0  0  0  0  0  0  0  0  0
   -0.0013   -8.3981  -20.2502 C   0  0  0  0  0  0  0  0  0  0  0  0
   -5.4198   -9.7693  -17.9383 H   0  0  0  0  0  0  0  0  0  0  0  0
   -3.9082   -7.0221  -15.0013 H   0  0  0  0  0  0  0  0  0  0  0  0
   -9.0372   -8.8087  -15.8479 H   0  0  0  0  0  0  0  0  0  0  0  0
  -10.2181   -7.3220  -14.5470 H   0  0  0  0  0  0  0  0  0  0  0  0
  -10.6900   -5.2518  -13.6956 H   0  0  0  0  0  0  0  0  0  0  0  0
  -10.1372   -3.3253  -12.3224 H   0  0  0  0  0  0  0  0  0  0  0  0
   -6.0210   -4.5094  -12.3121 H   0  0  0  0  0  0  0  0  0  0  0  0
   -6.0726   -0.1233  -14.0961 H   0  0  0  0  0  0  0  0  0  0  0  0
   -7.0243    0.2574  -12.6620 H   0  0  0  0  0  0  0  0  0  0  0  0
   -7.4414   -1.1539  -13.6737 H   0  0  0  0  0  0  0  0  0  0  0  0
   -5.0117   -2.3088  -14.2178 H   0  0  0  0  0  0  0  0  0  0  0  0
   -4.5269   -3.1403  -12.7659 H   0  0  0  0  0  0  0  0  0  0  0  0
   -8.5571   -2.0863  -11.0488 H   0  0  0  0  0  0  0  0  0  0  0  0
   -3.4043   -0.5552  -12.3979 H   0  0  0  0  0  0  0  0  0  0  0  0
   -3.7351   -0.1033  -14.8610 H   0  0  0  0  0  0  0  0  0  0  0  0
   -2.9054   -1.6216  -15.2524 H   0  0  0  0  0  0  0  0  0  0  0  0
    0.2435   -0.4583  -13.9463 H   0  0  0  0  0  0  0  0  0  0  0  0
   -0.5768   -1.8279  -14.7241 H   0  0  0  0  0  0  0  0  0  0  0  0
   -1.1418   -0.7785  -11.8762 H   0  0  0  0  0  0  0  0  0  0  0  0
   -0.2965   -2.2864  -12.2828 H   0  0  0  0  0  0  0  0  0  0  0  0
   -3.3542   -9.8032  -18.9264 H   0  0  0  0  0  0  0  0  0  0  0  0
   -1.6898   -7.3343  -15.7859 H   0  0  0  0  0  0  0  0  0  0  0  0
   -1.2939  -10.1129  -20.1471 H   0  0  0  0  0  0  0  0  0  0  0  0
   -0.0935  -11.4440  -18.5265 H   0  0  0  0  0  0  0  0  0  0  0  0
    0.9508  -10.1123  -18.0680 H   0  0  0  0  0  0  0  0  0  0  0  0
    0.9704  -11.5470  -20.7730 H   0  0  0  0  0  0  0  0  0  0  0  0
    2.2519  -11.5263  -19.5300 H   0  0  0  0  0  0  0  0  0  0  0  0
    2.4794   -9.1731  -19.8507 H   0  0  0  0  0  0  0  0  0  0  0  0
    0.5218   -9.5009  -22.0507 H   0  0  0  0  0  0  0  0  0  0  0  0
    1.5277   -8.0569  -21.7462 H   0  0  0  0  0  0  0  0  0  0  0  0
    0.5104   -7.7067  -19.5677 H   0  0  0  0  0  0  0  0  0  0  0  0
   -0.7914   -7.8132  -20.7386 H   0  0  0  0  0  0  0  0  0  0  0  0
    2.7490   -9.9977  -21.2443 H   0  0  0  0  0  0  0  0  0  0  0  0
  1  5  2  0  0  0  0
  1  8  1  0  0  0  0
  1 18  1  0  0  0  0
  2  5  1  0  0  0  0
  2  6  2  0  0  0  0
  3 13  2  0  0  0  0
  4 20  1  0  0  0  0
  4 22  2  0  0  0  0
  4 23  2  0  0  0  0
  4 24  1  0  0  0  0
  5 41  1  0  0  0  0
  6  7  1  0  0  0  0
  6  9  1  0  0  0  0
  7  8  2  0  0  0  0
  7 13  1  0  0  0  0
  8 42  1  0  0  0  0
  9 10  2  0  0  0  0
  9 43  1  0  0  0  0
 10 11  1  0  0  0  0
 10 44  1  0  0  0  0
 11 12  2  0  0  0  0
 11 14  1  0  0  0  0
 12 13  1  0  0  0  0
 12 17  1  0  0  0  0
 14 15  2  0  0  0  0
 14 45  1  0  0  0  0
 15 16  1  0  0  0  0
 15 46  1  0  0  0  0
 16 17  2  0  0  0  0
 16 24  1  0  0  0  0
 17 47  1  0  0  0  0
 18 31  1  0  0  0  0
 18 34  2  0  0  0  0
 19 20  1  0  0  0  0
 19 48  1  0  0  0  0
 19 49  1  0  0  0  0
 19 50  1  0  0  0  0
 20 21  1  0  0  0  0
 21 25  1  0  0  0  0
 21 51  1  0  0  0  0
 21 52  1  0  0  0  0
 24 53  1  0  0  0  0
 25 26  1  0  0  0  0
 25 30  1  0  0  0  0
 25 54  1  1  0  0  0
 26 27  1  0  0  0  0
 26 55  1  0  0  0  0
 26 56  1  0  0  0  0
 27 28  1  0  0  0  0
 28 29  1  0  0  0  0
 28 57  1  0  0  0  0
 28 58  1  0  0  0  0
 29 30  1  0  0  0  0
 29 59  1  0  0  0  0
 29 60  1  0  0  0  0
 31 32  2  0  0  0  0
 31 61  1  0  0  0  0
 32 33  1  0  0  0  0
 32 35  1  0  0  0  0
 33 34  1  0  0  0  0
 34 62  1  0  0  0  0
 35 36  1  0  0  0  0
 35 40  1  0  0  0  0
 35 63  1  0  0  0  0
 36 37  1  0  0  0  0
 36 64  1  0  0  0  0
 36 65  1  0  0  0  0
 37 38  1  0  0  0  0
 37 66  1  0  0  0  0
 37 67  1  0  0  0  0
 38 39  1  0  0  0  0
 38 68  1  0  0  0  0
 38 73  1  0  0  0  0
 39 40  1  0  0  0  0
 39 69  1  0  0  0  0
 39 70  1  0  0  0  0
 40 71  1  0  0  0  0
 40 72  1  0  0  0  0
M  CHG  2  32   1  38   1
M  END
$$$$
