MET
 OpenBabel04091912203D

 20 19  0  0  1  0  0  0  0  0999 V2000
   24.7917   32.3462   18.9717 N   0  3  0  0  0  0  0  0  0  0  0  0
   26.0707   31.5449   19.1570 C   0  0  2  0  0  0  0  0  0  0  0  0
   26.0551   30.2228   18.3315 C   0  0  0  0  0  0  0  0  0  0  0  0
   27.1272   29.6076   18.2280 O   0  0  0  0  0  0  0  0  0  0  0  0
   26.2294   31.2083   20.6348 C   0  0  0  0  0  0  0  0  0  0  0  0
   26.4567   32.4220   21.5362 C   0  0  0  0  0  0  0  0  0  0  0  0
   28.0524   33.2315   21.1926 S   0  0  0  0  0  0  0  0  0  0  0  0
   27.4749   34.8161   20.5441 C   0  0  0  0  0  0  0  0  0  0  0  0
   24.8923   30.0340   17.8426 O   0  0  0  0  0  0  0  0  0  0  0  0
   24.7429   33.2150   19.4903 H   0  0  0  0  0  0  0  0  0  0  0  0
   24.6920   32.5006   17.9592 H   0  0  0  0  0  0  0  0  0  0  0  0
   26.8749   32.1735   18.7701 H   0  0  0  0  0  0  0  0  0  0  0  0
   27.0598   30.5010   20.7721 H   0  0  0  0  0  0  0  0  0  0  0  0
   25.3331   30.6776   20.9896 H   0  0  0  0  0  0  0  0  0  0  0  0
   26.4793   32.0916   22.5813 H   0  0  0  0  0  0  0  0  0  0  0  0
   25.6361   33.1401   21.4542 H   0  0  0  0  0  0  0  0  0  0  0  0
   28.3399   35.4180   20.2555 H   0  0  0  0  0  0  0  0  0  0  0  0
   26.9159   35.3521   21.3143 H   0  0  0  0  0  0  0  0  0  0  0  0
   26.8443   34.6735   19.6623 H   0  0  0  0  0  0  0  0  0  0  0  0
   24.0150   31.7007   19.1701 H   0  0  0  0  0  0  0  0  0  0  0  0
  1  2  1  0  0  0  0
  1 10  1  0  0  0  0
  1 11  1  0  0  0  0
  1 20  1  0  0  0  0
  2  3  1  0  0  0  0
  2  5  1  0  0  0  0
  2 12  1  6  0  0  0
  3  4  2  0  0  0  0
  3  9  1  0  0  0  0
  5  6  1  0  0  0  0
  5 13  1  0  0  0  0
  5 14  1  0  0  0  0
  6  7  1  0  0  0  0
  6 15  1  0  0  0  0
  6 16  1  0  0  0  0
  7  8  1  0  0  0  0
  8 17  1  0  0  0  0
  8 18  1  0  0  0  0
  8 19  1  0  0  0  0
M  CHG  1   1   1
M  END
$$$$
