MHI
 OpenBabel04091914163D

 52 51  0  0  1  0  0  0  0  0999 V2000
   13.9024   55.4868   39.6368 C   0  0  0  0  0  0  0  0  0  0  0  0
   11.6764   54.7224   39.0207 N   0  3  0  0  0  0  0  0  0  0  0  0
   11.1902   57.2330   39.6213 O   0  0  0  0  0  0  0  0  0  0  0  0
   12.4809   55.3304   40.1389 C   0  0  2  0  0  0  0  0  0  0  0  0
   12.1630   57.1624   41.7064 N   0  0  0  0  0  0  0  0  0  0  0  0
   11.8189   57.2701   44.2878 O   0  0  0  0  0  0  0  0  0  0  0  0
   11.8857   56.6799   40.4789 C   0  0  0  0  0  0  0  0  0  0  0  0
   13.4118   61.8464   39.5736 N   0  0  0  0  0  0  0  0  0  0  0  0
   10.6167   59.2318   44.2747 O   0  0  0  0  0  0  0  0  0  0  0  0
   11.5935   58.4220   42.2341 C   0  0  1  0  0  0  0  0  0  0  0  0
   15.2386   65.5790   33.6118 N   0  3  0  0  0  0  0  0  0  0  0  0
   15.0920   60.8008   40.7617 O   0  0  0  0  0  0  0  0  0  0  0  0
   11.3271   58.3226   43.7691 C   0  0  0  0  0  0  0  0  0  0  0  0
   14.5706   65.2712   40.2149 O   0  0  0  0  0  0  0  0  0  0  0  0
   12.5679   59.5750   42.0039 C   0  0  0  0  0  0  0  0  0  0  0  0
   12.6250   64.1997   40.7955 O   0  0  0  0  0  0  0  0  0  0  0  0
   12.9758   59.7065   40.5455 C   0  0  0  0  0  0  0  0  0  0  0  0
   15.4072   67.6266   36.5611 O   0  0  0  0  0  0  0  0  0  0  0  0
   13.9315   60.8549   40.3524 C   0  0  0  0  0  0  0  0  0  0  0  0
   14.3225   67.7060   34.5264 O   0  0  0  0  0  0  0  0  0  0  0  0
   14.1375   63.1012   39.2880 C   0  0  2  0  0  0  0  0  0  0  0  0
   13.7504   64.3170   40.1992 C   0  0  0  0  0  0  0  0  0  0  0  0
   13.8577   63.3552   37.8057 C   0  0  0  0  0  0  0  0  0  0  0  0
   14.5124   64.6099   37.2538 C   0  0  0  0  0  0  0  0  0  0  0  0
   14.4186   64.6544   35.7297 C   0  0  0  0  0  0  0  0  0  0  0  0
   14.9387   67.1612   35.5060 C   0  0  0  0  0  0  0  0  0  0  0  0
   15.3385   65.7058   35.1263 C   0  0  2  0  0  0  0  0  0  0  0  0
   14.5440   55.9368   40.4054 H   0  0  0  0  0  0  0  0  0  0  0  0
   13.9412   56.1509   38.7582 H   0  0  0  0  0  0  0  0  0  0  0  0
   14.3213   54.5260   39.3488 H   0  0  0  0  0  0  0  0  0  0  0  0
   10.6900   54.6633   39.3185 H   0  0  0  0  0  0  0  0  0  0  0  0
   11.6721   55.3953   38.2403 H   0  0  0  0  0  0  0  0  0  0  0  0
   12.4060   54.6432   40.9880 H   0  0  0  0  0  0  0  0  0  0  0  0
   12.6022   56.6278   42.4666 H   0  0  0  0  0  0  0  0  0  0  0  0
   12.4043   61.9494   39.5379 H   0  0  0  0  0  0  0  0  0  0  0  0
   10.6451   58.6185   41.7157 H   0  0  0  0  0  0  0  0  0  0  0  0
   15.8081   66.3450   33.2304 H   0  0  0  0  0  0  0  0  0  0  0  0
   15.4615   64.6677   33.2245 H   0  0  0  0  0  0  0  0  0  0  0  0
   13.4678   59.4334   42.6185 H   0  0  0  0  0  0  0  0  0  0  0  0
   12.1106   60.5161   42.3338 H   0  0  0  0  0  0  0  0  0  0  0  0
   12.0937   59.8253   39.9057 H   0  0  0  0  0  0  0  0  0  0  0  0
   13.5094   58.8176   40.1918 H   0  0  0  0  0  0  0  0  0  0  0  0
   15.2096   62.9167   39.4348 H   0  0  0  0  0  0  0  0  0  0  0  0
   12.7740   63.3998   37.6352 H   0  0  0  0  0  0  0  0  0  0  0  0
   14.2155   62.4786   37.2450 H   0  0  0  0  0  0  0  0  0  0  0  0
   15.5596   64.6454   37.5714 H   0  0  0  0  0  0  0  0  0  0  0  0
   13.9973   65.4840   37.6657 H   0  0  0  0  0  0  0  0  0  0  0  0
   13.3770   64.8530   35.4460 H   0  0  0  0  0  0  0  0  0  0  0  0
   14.6810   63.6696   35.3203 H   0  0  0  0  0  0  0  0  0  0  0  0
   16.3907   65.5116   35.3599 H   0  0  0  0  0  0  0  0  0  0  0  0
   12.0263   53.8119   38.7297 H   0  0  0  0  0  0  0  0  0  0  0  0
   14.2830   65.9141   33.3984 H   0  0  0  0  0  0  0  0  0  0  0  0
  1  4  1  0  0  0  0
  1 28  1  0  0  0  0
  1 29  1  0  0  0  0
  1 30  1  0  0  0  0
  2  4  1  0  0  0  0
  2 31  1  0  0  0  0
  2 32  1  0  0  0  0
  2 51  1  0  0  0  0
  3  7  2  0  0  0  0
  4  7  1  0  0  0  0
  4 33  1  1  0  0  0
  5  7  1  0  0  0  0
  5 10  1  0  0  0  0
  5 34  1  0  0  0  0
  6 13  2  0  0  0  0
  8 19  1  0  0  0  0
  8 21  1  0  0  0  0
  8 35  1  0  0  0  0
  9 13  1  0  0  0  0
 10 13  1  0  0  0  0
 10 15  1  0  0  0  0
 10 36  1  6  0  0  0
 11 27  1  0  0  0  0
 11 37  1  0  0  0  0
 11 38  1  0  0  0  0
 11 52  1  0  0  0  0
 12 19  2  0  0  0  0
 14 22  2  0  0  0  0
 15 17  1  0  0  0  0
 15 39  1  0  0  0  0
 15 40  1  0  0  0  0
 16 22  1  0  0  0  0
 17 19  1  0  0  0  0
 17 41  1  0  0  0  0
 17 42  1  0  0  0  0
 18 26  2  0  0  0  0
 20 26  1  0  0  0  0
 21 22  1  0  0  0  0
 21 23  1  0  0  0  0
 21 43  1  1  0  0  0
 23 24  1  0  0  0  0
 23 44  1  0  0  0  0
 23 45  1  0  0  0  0
 24 25  1  0  0  0  0
 24 46  1  0  0  0  0
 24 47  1  0  0  0  0
 25 27  1  0  0  0  0
 25 48  1  0  0  0  0
 25 49  1  0  0  0  0
 26 27  1  0  0  0  0
 27 50  1  1  0  0  0
M  CHG  2   2   1  11   1
M  END
$$$$
