MI1
 OpenBabel04091913413D

 43 45  0  0  1  0  0  0  0  0999 V2000
    0.6967   15.7403    5.4146 C   0  0  1  0  0  0  0  0  0  0  0  0
    1.7927   16.8104    5.5049 C   0  0  0  0  0  0  0  0  0  0  0  0
    2.8093   15.6899    7.4448 C   0  0  0  0  0  0  0  0  0  0  0  0
    1.7055   14.6498    7.4526 C   0  0  0  0  0  0  0  0  0  0  0  0
    0.4233   15.1702    6.8182 C   0  0  1  0  0  0  0  0  0  0  0  0
    2.9916   16.2554    6.1171 N   0  0  0  0  0  0  0  0  0  0  0  0
    4.2221   16.5772    4.2244 O   0  0  0  0  0  0  0  0  0  0  0  0
    4.1540   16.1497    5.3901 C   0  0  0  0  0  0  0  0  0  0  0  0
    5.3332   15.5242    6.0753 C   0  0  0  0  0  0  0  0  0  0  0  0
    6.4345   15.2995    5.1519 C   0  0  0  0  0  0  0  0  0  0  0  0
    7.3223   15.0761    4.4357 N   0  0  0  0  0  0  0  0  0  0  0  0
   -0.2092   16.2012    7.7493 C   0  0  0  0  0  0  0  0  0  0  0  0
   -0.5645   16.2255    4.8822 N   0  0  0  0  0  0  0  0  0  0  0  0
   -0.7458   17.6305    4.5968 C   0  0  0  0  0  0  0  0  0  0  0  0
   -1.3945   15.3805    4.1756 C   0  0  0  0  0  0  0  0  0  0  0  0
   -1.2717   13.9800    4.0395 C   0  0  0  0  0  0  0  0  0  0  0  0
   -0.3739   12.9642    4.4757 C   0  0  0  0  0  0  0  0  0  0  0  0
   -0.8102   11.7622    3.9966 C   0  0  0  0  0  0  0  0  0  0  0  0
   -1.9606   11.9743    3.2894 N   0  3  0  0  0  0  0  0  0  0  0  0
   -2.2404   13.3288    3.3031 C   0  0  0  0  0  0  0  0  0  0  0  0
   -3.2956   13.8619    2.6880 N   0  0  0  0  0  0  0  0  0  0  0  0
   -3.3235   15.1858    2.8664 C   0  0  0  0  0  0  0  0  0  0  0  0
   -2.4730   15.9362    3.5473 N   0  0  0  0  0  0  0  0  0  0  0  0
    1.1103   14.9682    4.7542 H   0  0  0  0  0  0  0  0  0  0  0  0
    1.4553   17.6452    6.1247 H   0  0  0  0  0  0  0  0  0  0  0  0
    2.0215   17.2037    4.5087 H   0  0  0  0  0  0  0  0  0  0  0  0
    3.7257   15.2266    7.7934 H   0  0  0  0  0  0  0  0  0  0  0  0
    2.5724   16.5100    8.1258 H   0  0  0  0  0  0  0  0  0  0  0  0
    1.5002   14.3632    8.4883 H   0  0  0  0  0  0  0  0  0  0  0  0
    2.0380   13.7641    6.9016 H   0  0  0  0  0  0  0  0  0  0  0  0
   -0.2859   14.3442    6.7247 H   0  0  0  0  0  0  0  0  0  0  0  0
    5.0306   14.5535    6.4865 H   0  0  0  0  0  0  0  0  0  0  0  0
    5.6482   16.1867    6.8915 H   0  0  0  0  0  0  0  0  0  0  0  0
   -1.1361   16.5960    7.3278 H   0  0  0  0  0  0  0  0  0  0  0  0
    0.4671   17.0398    7.9276 H   0  0  0  0  0  0  0  0  0  0  0  0
   -0.4385   15.7408    8.7125 H   0  0  0  0  0  0  0  0  0  0  0  0
   -1.7628   17.8553    4.2763 H   0  0  0  0  0  0  0  0  0  0  0  0
   -0.0584   17.9279    3.8025 H   0  0  0  0  0  0  0  0  0  0  0  0
   -0.5658   18.2437    5.4845 H   0  0  0  0  0  0  0  0  0  0  0  0
    0.5090   13.0722    5.0771 H   0  0  0  0  0  0  0  0  0  0  0  0
   -0.3806   10.7714    4.1147 H   0  0  0  0  0  0  0  0  0  0  0  0
   -2.5322   11.3039    2.8246 H   0  0  0  0  0  0  0  0  0  0  0  0
   -4.1341   15.7222    2.4022 H   0  0  0  0  0  0  0  0  0  0  0  0
  1  2  1  0  0  0  0
  1  5  1  0  0  0  0
  1 13  1  0  0  0  0
  1 24  1  6  0  0  0
  2  6  1  0  0  0  0
  2 25  1  0  0  0  0
  2 26  1  0  0  0  0
  3  4  1  0  0  0  0
  3  6  1  0  0  0  0
  3 27  1  0  0  0  0
  3 28  1  0  0  0  0
  4  5  1  0  0  0  0
  4 29  1  0  0  0  0
  4 30  1  0  0  0  0
  5 12  1  0  0  0  0
  5 31  1  6  0  0  0
  6  8  1  0  0  0  0
  7  8  2  0  0  0  0
  8  9  1  0  0  0  0
  9 10  1  0  0  0  0
  9 32  1  0  0  0  0
  9 33  1  0  0  0  0
 10 11  3  0  0  0  0
 12 34  1  0  0  0  0
 12 35  1  0  0  0  0
 12 36  1  0  0  0  0
 13 14  1  0  0  0  0
 13 15  1  0  0  0  0
 14 37  1  0  0  0  0
 14 38  1  0  0  0  0
 14 39  1  0  0  0  0
 15 16  2  0  0  0  0
 15 23  1  0  0  0  0
 16 17  1  0  0  0  0
 16 20  1  0  0  0  0
 17 18  2  0  0  0  0
 17 40  1  0  0  0  0
 18 19  1  0  0  0  0
 18 41  1  0  0  0  0
 19 20  2  0  0  0  0
 19 42  1  0  0  0  0
 20 21  1  0  0  0  0
 21 22  1  0  0  0  0
 22 23  2  0  0  0  0
 22 43  1  0  0  0  0
M  CHG  1  19   1
M  END
$$$$
