ML0
 OpenBabel04091912533D

 60 63  0  0  1  0  0  0  0  0999 V2000
   15.9278    6.9570   19.3021 O   0  0  0  0  0  0  0  0  0  0  0  0
   15.4427    6.4280   18.2615 C   0  0  0  0  0  0  0  0  0  0  0  0
   15.6128    6.6308   17.0378 O   0  0  0  0  0  0  0  0  0  0  0  0
   14.4875    5.2633   18.6411 C   0  0  1  0  0  0  0  0  0  0  0  0
   14.6026    4.9345   20.1205 N   0  3  0  0  0  0  0  0  0  0  0  0
   13.0769    5.7591   18.3301 C   0  0  0  0  0  0  0  0  0  0  0  0
   12.0132    4.7186   18.5934 C   0  0  0  0  0  0  0  0  0  0  0  0
   11.0863    4.9126   19.6169 C   0  0  0  0  0  0  0  0  0  0  0  0
   10.0790    3.9722   19.8419 C   0  0  0  0  0  0  0  0  0  0  0  0
   11.9130    3.5665   17.8039 C   0  0  0  0  0  0  0  0  0  0  0  0
   10.9029    2.6219   18.0400 C   0  0  0  0  0  0  0  0  0  0  0  0
    9.9621    2.7987   19.0678 C   0  0  0  0  0  0  0  0  0  0  0  0
    8.8884    1.8103   19.3338 C   0  0  0  0  0  0  0  0  0  0  0  0
    8.3131    1.6966   20.5793 C   0  0  0  0  0  0  0  0  0  0  0  0
    8.4928    1.0214   18.3102 N   0  0  0  0  0  0  0  0  0  0  0  0
    7.5116    0.1391   18.5496 C   0  0  0  0  0  0  0  0  0  0  0  0
    7.1552   -0.7143   17.5301 N   0  0  0  0  0  0  0  0  0  0  0  0
    6.8717   -0.0011   19.7145 N   0  0  0  0  0  0  0  0  0  0  0  0
    7.3042    0.7808   20.7085 C   0  0  0  0  0  0  0  0  0  0  0  0
    6.7308    0.7331   21.9610 O   0  0  0  0  0  0  0  0  0  0  0  0
    5.8429   -0.3685   22.2183 C   0  0  1  0  0  0  0  0  0  0  0  0
    6.1622   -0.9261   23.6131 C   0  0  0  0  0  0  0  0  0  0  0  0
    7.4797   -1.2342   23.7210 F   0  0  0  0  0  0  0  0  0  0  0  0
    5.8799   -0.0481   24.6039 F   0  0  0  0  0  0  0  0  0  0  0  0
    5.4747   -2.0664   23.8648 F   0  0  0  0  0  0  0  0  0  0  0  0
    4.3950    0.0961   22.1470 C   0  0  0  0  0  0  0  0  0  0  0  0
    4.0270    1.4209   22.4194 C   0  0  0  0  0  0  0  0  0  0  0  0
    2.6830    1.8067   22.3919 C   0  0  0  0  0  0  0  0  0  0  0  0
    3.3877   -0.8309   21.8621 C   0  0  0  0  0  0  0  0  0  0  0  0
    2.0476   -0.4384   21.8309 C   0  0  0  0  0  0  0  0  0  0  0  0
    1.6629    0.8891   22.0907 C   0  0  0  0  0  0  0  0  0  0  0  0
    0.2421    1.2965   22.0455 C   0  0  0  0  0  0  0  0  0  0  0  0
   -0.1447    2.5616   21.5560 C   0  0  0  0  0  0  0  0  0  0  0  0
   -0.7791    0.4399   22.4823 C   0  0  0  0  0  0  0  0  0  0  0  0
   -2.1142    0.8265   22.4147 C   0  0  0  0  0  0  0  0  0  0  0  0
   -3.0677   -0.0219   22.8225 F   0  0  0  0  0  0  0  0  0  0  0  0
   -2.4797    2.0764   21.9325 C   0  0  0  0  0  0  0  0  0  0  0  0
   -1.4839    2.9503   21.5021 C   0  0  0  0  0  0  0  0  0  0  0  0
   14.7541    4.3479   18.1022 H   0  0  0  0  0  0  0  0  0  0  0  0
   13.9635    4.2135   20.4531 H   0  0  0  0  0  0  0  0  0  0  0  0
   15.5890    4.7099   20.2982 H   0  0  0  0  0  0  0  0  0  0  0  0
   12.9900    6.0759   17.2825 H   0  0  0  0  0  0  0  0  0  0  0  0
   12.8622    6.6599   18.9237 H   0  0  0  0  0  0  0  0  0  0  0  0
   11.1117    5.8095   20.2336 H   0  0  0  0  0  0  0  0  0  0  0  0
    9.3583    4.1964   20.6253 H   0  0  0  0  0  0  0  0  0  0  0  0
   12.6054    3.4012   16.9785 H   0  0  0  0  0  0  0  0  0  0  0  0
   10.8489    1.7423   17.3994 H   0  0  0  0  0  0  0  0  0  0  0  0
    8.6227    2.2810   21.4366 H   0  0  0  0  0  0  0  0  0  0  0  0
    7.4296   -0.3867   16.6157 H   0  0  0  0  0  0  0  0  0  0  0  0
    6.2386   -1.1200   17.6489 H   0  0  0  0  0  0  0  0  0  0  0  0
    6.0006   -1.1885   21.5070 H   0  0  0  0  0  0  0  0  0  0  0  0
    4.7760    2.1686   22.6694 H   0  0  0  0  0  0  0  0  0  0  0  0
    2.4419    2.8410   22.6272 H   0  0  0  0  0  0  0  0  0  0  0  0
    3.6315   -1.8735   21.6697 H   0  0  0  0  0  0  0  0  0  0  0  0
    1.3004   -1.1920   21.5878 H   0  0  0  0  0  0  0  0  0  0  0  0
    0.6093    3.2604   21.1927 H   0  0  0  0  0  0  0  0  0  0  0  0
   -0.5581   -0.5487   22.8845 H   0  0  0  0  0  0  0  0  0  0  0  0
   -3.5225    2.3594   21.8907 H   0  0  0  0  0  0  0  0  0  0  0  0
   -1.7494    3.9325   21.1209 H   0  0  0  0  0  0  0  0  0  0  0  0
   14.4926    5.8362   20.6094 H   0  0  0  0  0  0  0  0  0  0  0  0
  1  2  2  0  0  0  0
  2  3  1  0  0  0  0
  2  4  1  0  0  0  0
  4  5  1  0  0  0  0
  4  6  1  0  0  0  0
  4 39  1  6  0  0  0
  5 40  1  0  0  0  0
  5 41  1  0  0  0  0
  5 60  1  0  0  0  0
  6  7  1  0  0  0  0
  6 42  1  0  0  0  0
  6 43  1  0  0  0  0
  7  8  2  0  0  0  0
  7 10  1  0  0  0  0
  8  9  1  0  0  0  0
  8 44  1  0  0  0  0
  9 12  2  0  0  0  0
  9 45  1  0  0  0  0
 10 11  2  0  0  0  0
 10 46  1  0  0  0  0
 11 12  1  0  0  0  0
 11 47  1  0  0  0  0
 12 13  1  0  0  0  0
 13 14  2  0  0  0  0
 13 15  1  0  0  0  0
 14 19  1  0  0  0  0
 14 48  1  0  0  0  0
 15 16  2  0  0  0  0
 16 17  1  0  0  0  0
 16 18  1  0  0  0  0
 17 49  1  0  0  0  0
 17 50  1  0  0  0  0
 18 19  2  0  0  0  0
 19 20  1  0  0  0  0
 20 21  1  0  0  0  0
 21 22  1  0  0  0  0
 21 26  1  0  0  0  0
 21 51  1  6  0  0  0
 22 23  1  0  0  0  0
 22 24  1  0  0  0  0
 22 25  1  0  0  0  0
 26 27  2  0  0  0  0
 26 29  1  0  0  0  0
 27 28  1  0  0  0  0
 27 52  1  0  0  0  0
 28 31  2  0  0  0  0
 28 53  1  0  0  0  0
 29 30  2  0  0  0  0
 29 54  1  0  0  0  0
 30 31  1  0  0  0  0
 30 55  1  0  0  0  0
 31 32  1  0  0  0  0
 32 33  2  0  0  0  0
 32 34  1  0  0  0  0
 33 38  1  0  0  0  0
 33 56  1  0  0  0  0
 34 35  2  0  0  0  0
 34 57  1  0  0  0  0
 35 36  1  0  0  0  0
 35 37  1  0  0  0  0
 37 38  2  0  0  0  0
 37 58  1  0  0  0  0
 38 59  1  0  0  0  0
M  CHG  1   5   1
M  END
$$$$
