ML4
 OpenBabel04091912533D

 59 62  0  0  1  0  0  0  0  0999 V2000
   15.9967    5.9053   19.3661 O   0  0  0  0  0  0  0  0  0  0  0  0
   15.4786    5.3476   18.3438 C   0  0  0  0  0  0  0  0  0  0  0  0
   15.6454    5.5024   17.1148 O   0  0  0  0  0  0  0  0  0  0  0  0
   14.5018    4.2309   18.7823 C   0  0  1  0  0  0  0  0  0  0  0  0
   14.6645    3.9400   20.2662 N   0  3  0  0  0  0  0  0  0  0  0  0
   13.0934    4.7579   18.5095 C   0  0  0  0  0  0  0  0  0  0  0  0
   12.0330    3.7243   18.8055 C   0  0  0  0  0  0  0  0  0  0  0  0
   11.8281    2.6482   17.9379 C   0  0  0  0  0  0  0  0  0  0  0  0
   10.8494    1.6875   18.2202 C   0  0  0  0  0  0  0  0  0  0  0  0
   10.0403    1.7651   19.3707 C   0  0  0  0  0  0  0  0  0  0  0  0
   10.2753    2.8544   20.2314 C   0  0  0  0  0  0  0  0  0  0  0  0
   11.2495    3.8194   19.9559 C   0  0  0  0  0  0  0  0  0  0  0  0
    9.0052    0.7403   19.6483 C   0  0  0  0  0  0  0  0  0  0  0  0
    8.8334   -0.2252   18.7106 N   0  0  0  0  0  0  0  0  0  0  0  0
    7.9272   -1.1955   19.0043 C   0  0  0  0  0  0  0  0  0  0  0  0
    7.1992   -1.2532   20.1929 C   0  0  0  0  0  0  0  0  0  0  0  0
    7.3487   -0.2831   21.1105 N   0  0  0  0  0  0  0  0  0  0  0  0
    8.2383    0.6988   20.8125 C   0  0  0  0  0  0  0  0  0  0  0  0
    6.3864   -2.3556   20.4549 N   0  0  0  0  0  0  0  0  0  0  0  0
    5.8568   -2.4381   21.8130 C   0  0  0  0  0  0  0  0  0  0  0  0
    5.1130   -3.7514   21.9513 C   0  0  0  0  0  0  0  0  0  0  0  0
    3.7693   -3.8301   22.3830 C   0  0  0  0  0  0  0  0  0  0  0  0
    3.1585   -5.0968   22.4623 C   0  0  0  0  0  0  0  0  0  0  0  0
    3.8583   -6.2618   22.1418 C   0  0  0  0  0  0  0  0  0  0  0  0
    5.1841   -6.1846   21.7382 C   0  0  0  0  0  0  0  0  0  0  0  0
    5.8062   -4.9426   21.6486 C   0  0  0  0  0  0  0  0  0  0  0  0
    2.9845   -2.6406   22.7538 C   0  0  0  0  0  0  0  0  0  0  0  0
    2.3182   -1.9264   21.7401 C   0  0  0  0  0  0  0  0  0  0  0  0
    1.5724   -0.7836   22.0307 C   0  0  0  0  0  0  0  0  0  0  0  0
    1.4736   -0.3363   23.3429 C   0  0  0  0  0  0  0  0  0  0  0  0
    2.1194   -1.0325   24.3635 C   0  0  0  0  0  0  0  0  0  0  0  0
    2.8766   -2.1860   24.0869 C   0  0  0  0  0  0  0  0  0  0  0  0
    3.5389   -2.8781   25.2489 C   0  0  0  0  0  0  0  0  0  0  0  0
   14.7197    3.2928   18.2623 H   0  0  0  0  0  0  0  0  0  0  0  0
   13.9968    3.2759   20.6546 H   0  0  0  0  0  0  0  0  0  0  0  0
   15.6405    3.6556   20.4087 H   0  0  0  0  0  0  0  0  0  0  0  0
   12.9857    5.0723   17.4632 H   0  0  0  0  0  0  0  0  0  0  0  0
   12.9021    5.6616   19.1053 H   0  0  0  0  0  0  0  0  0  0  0  0
   12.4138    2.5515   17.0243 H   0  0  0  0  0  0  0  0  0  0  0  0
   10.7167    0.8661   17.5149 H   0  0  0  0  0  0  0  0  0  0  0  0
    9.6937    2.9938   21.1382 H   0  0  0  0  0  0  0  0  0  0  0  0
   11.3694    4.6534   20.6448 H   0  0  0  0  0  0  0  0  0  0  0  0
    7.8301   -1.9779   18.2587 H   0  0  0  0  0  0  0  0  0  0  0  0
    8.3128    1.4527   21.5857 H   0  0  0  0  0  0  0  0  0  0  0  0
    5.6643   -2.4595   19.7493 H   0  0  0  0  0  0  0  0  0  0  0  0
    5.2221   -1.5741   22.0326 H   0  0  0  0  0  0  0  0  0  0  0  0
    6.6743   -2.4445   22.5469 H   0  0  0  0  0  0  0  0  0  0  0  0
    2.1220   -5.1769   22.7849 H   0  0  0  0  0  0  0  0  0  0  0  0
    3.3652   -7.2288   22.2119 H   0  0  0  0  0  0  0  0  0  0  0  0
    5.7371   -7.0870   21.4882 H   0  0  0  0  0  0  0  0  0  0  0  0
    6.8454   -4.8916   21.3263 H   0  0  0  0  0  0  0  0  0  0  0  0
    2.3845   -2.2623   20.7069 H   0  0  0  0  0  0  0  0  0  0  0  0
    1.0719   -0.2436   21.2317 H   0  0  0  0  0  0  0  0  0  0  0  0
    0.8937    0.5540   23.5720 H   0  0  0  0  0  0  0  0  0  0  0  0
    2.0317   -0.6718   25.3868 H   0  0  0  0  0  0  0  0  0  0  0  0
    4.1049   -3.7663   24.9588 H   0  0  0  0  0  0  0  0  0  0  0  0
    2.7805   -3.1958   25.9726 H   0  0  0  0  0  0  0  0  0  0  0  0
    4.2365   -2.1922   25.7409 H   0  0  0  0  0  0  0  0  0  0  0  0
   14.6395    4.8677   20.7203 H   0  0  0  0  0  0  0  0  0  0  0  0
  1  2  2  0  0  0  0
  2  3  1  0  0  0  0
  2  4  1  0  0  0  0
  4  5  1  0  0  0  0
  4  6  1  0  0  0  0
  4 34  1  6  0  0  0
  5 35  1  0  0  0  0
  5 36  1  0  0  0  0
  5 59  1  0  0  0  0
  6  7  1  0  0  0  0
  6 37  1  0  0  0  0
  6 38  1  0  0  0  0
  7  8  2  0  0  0  0
  7 12  1  0  0  0  0
  8  9  1  0  0  0  0
  8 39  1  0  0  0  0
  9 10  2  0  0  0  0
  9 40  1  0  0  0  0
 10 11  1  0  0  0  0
 10 13  1  0  0  0  0
 11 12  2  0  0  0  0
 11 41  1  0  0  0  0
 12 42  1  0  0  0  0
 13 14  2  0  0  0  0
 13 18  1  0  0  0  0
 14 15  1  0  0  0  0
 15 16  2  0  0  0  0
 15 43  1  0  0  0  0
 16 17  1  0  0  0  0
 16 19  1  0  0  0  0
 17 18  2  0  0  0  0
 18 44  1  0  0  0  0
 19 20  1  0  0  0  0
 19 45  1  0  0  0  0
 20 21  1  0  0  0  0
 20 46  1  0  0  0  0
 20 47  1  0  0  0  0
 21 22  2  0  0  0  0
 21 26  1  0  0  0  0
 22 23  1  0  0  0  0
 22 27  1  0  0  0  0
 23 24  2  0  0  0  0
 23 48  1  0  0  0  0
 24 25  1  0  0  0  0
 24 49  1  0  0  0  0
 25 26  2  0  0  0  0
 25 50  1  0  0  0  0
 26 51  1  0  0  0  0
 27 28  2  0  0  0  0
 27 32  1  0  0  0  0
 28 29  1  0  0  0  0
 28 52  1  0  0  0  0
 29 30  2  0  0  0  0
 29 53  1  0  0  0  0
 30 31  1  0  0  0  0
 30 54  1  0  0  0  0
 31 32  2  0  0  0  0
 31 55  1  0  0  0  0
 32 33  1  0  0  0  0
 33 56  1  0  0  0  0
 33 57  1  0  0  0  0
 33 58  1  0  0  0  0
M  CHG  1   5   1
M  END
$$$$
