MLK
 OpenBabel04091915153D

100107  0  0  1  0  0  0  0  0999 V2000
  -37.5632   -7.8894  -19.3845 O   0  0  0  0  0  0  0  0  0  0  0  0
  -38.4465   -8.3139  -20.1666 C   0  0  0  0  0  0  0  0  0  0  0  0
  -38.1710   -9.1972  -21.3506 C   0  0  0  0  0  0  0  0  0  0  0  0
  -39.5109   -9.2421  -22.0794 C   0  0  2  0  0  0  0  0  0  0  0  0
  -39.4080   -8.5690  -23.4393 C   0  0  0  0  0  0  0  0  0  0  0  0
  -40.4448   -8.5010  -21.1523 C   0  0  0  0  0  0  0  0  0  0  0  0
  -41.6492   -8.3083  -21.3737 O   0  0  0  0  0  0  0  0  0  0  0  0
  -39.7641   -8.0697  -20.0553 N   0  0  0  0  0  0  0  0  0  0  0  0
  -40.3682   -7.3935  -18.9835 C   0  0  0  0  0  0  0  0  0  0  0  0
  -41.0130   -8.1864  -18.0149 C   0  0  0  0  0  0  0  0  0  0  0  0
  -41.6278   -7.5869  -16.9189 C   0  0  0  0  0  0  0  0  0  0  0  0
  -41.6176   -6.2071  -16.7728 C   0  0  0  0  0  0  0  0  0  0  0  0
  -40.9771   -5.4128  -17.7269 C   0  0  0  0  0  0  0  0  0  0  0  0
  -40.3482   -5.9950  -18.8319 C   0  0  0  0  0  0  0  0  0  0  0  0
  -39.7109   -5.1285  -19.8104 C   0  0  0  0  0  0  0  0  0  0  0  0
  -39.2413   -5.5662  -20.8853 O   0  0  0  0  0  0  0  0  0  0  0  0
  -39.5085   -3.8534  -19.4668 O   0  0  0  0  0  0  0  0  0  0  0  0
  -38.6003   -3.0659  -20.2535 C   0  0  0  0  0  0  0  0  0  0  0  0
  -38.2969   -1.7715  -19.4765 C   0  0  1  0  0  0  0  0  0  0  0  0
  -39.6035   -1.2036  -18.9194 C   0  0  0  0  0  0  0  0  0  0  0  0
  -39.4833   -0.7469  -17.4811 C   0  0  0  0  0  0  0  0  0  0  0  0
  -38.2086    0.0426  -17.2234 C   0  0  2  0  0  0  0  0  0  0  0  0
  -38.3148    1.3129  -17.8841 O   0  0  0  0  0  0  0  0  0  0  0  0
  -39.0946    2.1943  -17.0663 C   0  0  0  0  0  0  0  0  0  0  0  0
  -36.9325   -0.7235  -17.6358 C   0  0  1  0  0  0  0  0  0  0  0  0
  -37.2747   -2.0635  -18.3410 C   0  0  2  0  0  0  0  0  0  0  0  0
  -36.0715   -0.0969  -18.7298 C   0  0  2  0  0  0  0  0  0  0  0  0
  -36.9658    0.3245  -19.8534 N   0  3  1  0  0  0  0  0  0  0  0  0
  -36.2898    1.2155  -20.8438 C   0  0  0  0  0  0  0  0  0  0  0  0
  -35.9219    2.5230  -20.1871 C   0  0  0  0  0  0  0  0  0  0  0  0
  -37.7145   -0.7764  -20.5021 C   0  0  0  0  0  0  0  0  0  0  0  0
  -36.0589   -0.9005  -16.3660 C   0  0  2  0  0  0  0  0  0  0  0  0
  -35.6184    0.4511  -15.7659 C   0  0  0  0  0  0  0  0  0  0  0  0
  -34.1159    0.3100  -15.4604 C   0  0  2  0  0  0  0  0  0  0  0  0
  -33.3780    0.8901  -16.6731 C   0  0  1  0  0  0  0  0  0  0  0  0
  -32.1043    1.4229  -16.3229 O   0  0  0  0  0  0  0  0  0  0  0  0
  -32.2763    2.7958  -15.9950 C   0  0  0  0  0  0  0  0  0  0  0  0
  -33.2699   -0.0265  -17.8812 C   0  0  0  0  0  0  0  0  0  0  0  0
  -34.7425   -1.6772  -16.5502 C   0  0  2  0  0  0  0  0  0  0  0  0
  -33.8924   -1.2004  -15.3618 C   0  0  1  0  0  0  0  0  0  0  0  0
  -32.5200   -1.5400  -15.4401 O   0  0  0  0  0  0  0  0  0  0  0  0
  -32.2773   -2.8445  -14.9288 C   0  0  0  0  0  0  0  0  0  0  0  0
  -34.0607   -1.3424  -17.8918 C   0  0  2  0  0  0  0  0  0  0  0  0
  -33.1304   -2.3883  -18.2108 O   0  0  0  0  0  0  0  0  0  0  0  0
  -35.0877   -1.2590  -19.0484 C   0  0  2  0  0  0  0  0  0  0  0  0
  -34.4381   -1.1051  -20.3180 O   0  0  0  0  0  0  0  0  0  0  0  0
  -35.9888   -2.4927  -19.0679 C   0  0  1  0  0  0  0  0  0  0  0  0
  -35.4030   -3.6515  -18.5194 O   0  0  0  0  0  0  0  0  0  0  0  0
  -36.1068   -4.8202  -18.9163 C   0  0  0  0  0  0  0  0  0  0  0  0
  -37.8691  -10.1992  -21.0185 H   0  0  0  0  0  0  0  0  0  0  0  0
  -37.3793   -8.7757  -21.9752 H   0  0  0  0  0  0  0  0  0  0  0  0
  -39.8610  -10.2726  -22.2065 H   0  0  0  0  0  0  0  0  0  0  0  0
  -40.3693   -8.5987  -23.9619 H   0  0  0  0  0  0  0  0  0  0  0  0
  -38.6615   -9.0783  -24.0595 H   0  0  0  0  0  0  0  0  0  0  0  0
  -39.1088   -7.5213  -23.3282 H   0  0  0  0  0  0  0  0  0  0  0  0
  -41.0327   -9.2670  -18.1117 H   0  0  0  0  0  0  0  0  0  0  0  0
  -42.1237   -8.2065  -16.1727 H   0  0  0  0  0  0  0  0  0  0  0  0
  -42.1061   -5.7433  -15.9202 H   0  0  0  0  0  0  0  0  0  0  0  0
  -40.9786   -4.3372  -17.6010 H   0  0  0  0  0  0  0  0  0  0  0  0
  -38.9792   -2.8170  -21.2551 H   0  0  0  0  0  0  0  0  0  0  0  0
  -37.6965   -3.6467  -20.4161 H   0  0  0  0  0  0  0  0  0  0  0  0
  -40.3889   -1.9582  -18.9726 H   0  0  0  0  0  0  0  0  0  0  0  0
  -39.9421   -0.3756  -19.5487 H   0  0  0  0  0  0  0  0  0  0  0  0
  -39.5043   -1.6162  -16.8185 H   0  0  0  0  0  0  0  0  0  0  0  0
  -40.3551   -0.1353  -17.2519 H   0  0  0  0  0  0  0  0  0  0  0  0
  -38.1499    0.2307  -16.1462 H   0  0  0  0  0  0  0  0  0  0  0  0
  -39.1976    3.1592  -17.5619 H   0  0  0  0  0  0  0  0  0  0  0  0
  -38.5936    2.3259  -16.1051 H   0  0  0  0  0  0  0  0  0  0  0  0
  -40.0916    1.7805  -16.8995 H   0  0  0  0  0  0  0  0  0  0  0  0
  -37.6519   -2.8072  -17.6222 H   0  0  0  0  0  0  0  0  0  0  0  0
  -35.5668    0.7975  -18.3937 H   0  0  0  0  0  0  0  0  0  0  0  0
  -36.9955    1.3816  -21.6603 H   0  0  0  0  0  0  0  0  0  0  0  0
  -35.4085    0.6981  -21.2190 H   0  0  0  0  0  0  0  0  0  0  0  0
  -35.4301    3.1627  -20.9123 H   0  0  0  0  0  0  0  0  0  0  0  0
  -35.2255    2.3752  -19.3607 H   0  0  0  0  0  0  0  0  0  0  0  0
  -36.8120    3.0265  -19.7995 H   0  0  0  0  0  0  0  0  0  0  0  0
  -38.5137   -0.3139  -21.0828 H   0  0  0  0  0  0  0  0  0  0  0  0
  -37.0178   -1.2657  -21.1887 H   0  0  0  0  0  0  0  0  0  0  0  0
  -36.6791   -1.4167  -15.6186 H   0  0  0  0  0  0  0  0  0  0  0  0
  -36.1948    0.6820  -14.8636 H   0  0  0  0  0  0  0  0  0  0  0  0
  -35.8082    1.2808  -16.4611 H   0  0  0  0  0  0  0  0  0  0  0  0
  -33.8393    0.8333  -14.5375 H   0  0  0  0  0  0  0  0  0  0  0  0
  -33.9577    1.7504  -17.0252 H   0  0  0  0  0  0  0  0  0  0  0  0
  -31.3234    3.2429  -15.7152 H   0  0  0  0  0  0  0  0  0  0  0  0
  -32.9835    2.8801  -15.1675 H   0  0  0  0  0  0  0  0  0  0  0  0
  -32.6742    3.3167  -16.8701 H   0  0  0  0  0  0  0  0  0  0  0  0
  -32.2105   -0.2695  -18.0560 H   0  0  0  0  0  0  0  0  0  0  0  0
  -33.5819    0.5636  -18.7438 H   0  0  0  0  0  0  0  0  0  0  0  0
  -34.9402   -2.7505  -16.4869 H   0  0  0  0  0  0  0  0  0  0  0  0
  -34.2943   -1.5856  -14.4220 H   0  0  0  0  0  0  0  0  0  0  0  0
  -31.2120   -3.0840  -14.9965 H   0  0  0  0  0  0  0  0  0  0  0  0
  -32.8480   -3.5772  -15.5034 H   0  0  0  0  0  0  0  0  0  0  0  0
  -32.5810   -2.8811  -13.8790 H   0  0  0  0  0  0  0  0  0  0  0  0
  -33.6278   -3.2390  -18.2666 H   0  0  0  0  0  0  0  0  0  0  0  0
  -33.8409   -1.8798  -20.4467 H   0  0  0  0  0  0  0  0  0  0  0  0
  -36.1701   -2.7189  -20.1110 H   0  0  0  0  0  0  0  0  0  0  0  0
  -35.6373   -5.6928  -18.4682 H   0  0  0  0  0  0  0  0  0  0  0  0
  -36.0631   -4.9026  -20.0016 H   0  0  0  0  0  0  0  0  0  0  0  0
  -37.1397   -4.7577  -18.5773 H   0  0  0  0  0  0  0  0  0  0  0  0
  -37.6819    0.9276  -19.3973 H   0  0  0  0  0  0  0  0  0  0  0  0
  1  2  2  0  0  0  0
  2  3  1  0  0  0  0
  2  8  1  0  0  0  0
  3  4  1  0  0  0  0
  3 50  1  0  0  0  0
  3 51  1  0  0  0  0
  4  5  1  0  0  0  0
  4  6  1  0  0  0  0
  4 52  1  6  0  0  0
  5 53  1  0  0  0  0
  5 54  1  0  0  0  0
  5 55  1  0  0  0  0
  6  7  2  0  0  0  0
  6  8  1  0  0  0  0
  8  9  1  0  0  0  0
  9 10  2  0  0  0  0
  9 14  1  0  0  0  0
 10 11  1  0  0  0  0
 10 56  1  0  0  0  0
 11 12  2  0  0  0  0
 11 57  1  0  0  0  0
 12 13  1  0  0  0  0
 12 58  1  0  0  0  0
 13 14  2  0  0  0  0
 13 59  1  0  0  0  0
 14 15  1  0  0  0  0
 15 16  2  0  0  0  0
 15 17  1  0  0  0  0
 17 18  1  0  0  0  0
 18 60  1  0  0  0  0
 18 61  1  0  0  0  0
 19 18  1  6  0  0  0
 19 20  1  0  0  0  0
 19 26  1  0  0  0  0
 19 31  1  0  0  0  0
 20 21  1  0  0  0  0
 20 62  1  0  0  0  0
 20 63  1  0  0  0  0
 21 22  1  0  0  0  0
 21 64  1  0  0  0  0
 21 65  1  0  0  0  0
 22 23  1  0  0  0  0
 22 66  1  1  0  0  0
 23 24  1  0  0  0  0
 24 67  1  0  0  0  0
 24 68  1  0  0  0  0
 24 69  1  0  0  0  0
 25 22  1  1  0  0  0
 25 26  1  0  0  0  0
 25 27  1  0  0  0  0
 25 32  1  0  0  0  0
 26 47  1  0  0  0  0
 26 70  1  1  0  0  0
 27 28  1  0  0  0  0
 27 45  1  0  0  0  0
 27 71  1  1  0  0  0
 28 29  1  0  0  0  0
 28 31  1  0  0  0  0
 28100  1  1  0  0  0
 29 30  1  0  0  0  0
 29 72  1  0  0  0  0
 29 73  1  0  0  0  0
 30 74  1  0  0  0  0
 30 75  1  0  0  0  0
 30 76  1  0  0  0  0
 31 77  1  0  0  0  0
 31 78  1  0  0  0  0
 32 33  1  0  0  0  0
 32 39  1  0  0  0  0
 32 79  1  1  0  0  0
 33 34  1  0  0  0  0
 33 80  1  0  0  0  0
 33 81  1  0  0  0  0
 34 35  1  0  0  0  0
 34 40  1  0  0  0  0
 34 82  1  1  0  0  0
 35 36  1  0  0  0  0
 35 38  1  0  0  0  0
 35 83  1  6  0  0  0
 36 37  1  0  0  0  0
 37 84  1  0  0  0  0
 37 85  1  0  0  0  0
 37 86  1  0  0  0  0
 38 43  1  0  0  0  0
 38 87  1  0  0  0  0
 38 88  1  0  0  0  0
 39 40  1  0  0  0  0
 39 43  1  0  0  0  0
 39 89  1  1  0  0  0
 40 41  1  0  0  0  0
 40 90  1  1  0  0  0
 41 42  1  0  0  0  0
 42 91  1  0  0  0  0
 42 92  1  0  0  0  0
 42 93  1  0  0  0  0
 43 44  1  6  0  0  0
 43 45  1  0  0  0  0
 44 94  1  0  0  0  0
 45 46  1  6  0  0  0
 45 47  1  0  0  0  0
 46 95  1  0  0  0  0
 47 48  1  0  0  0  0
 47 96  1  6  0  0  0
 48 49  1  0  0  0  0
 49 97  1  0  0  0  0
 49 98  1  0  0  0  0
 49 99  1  0  0  0  0
M  CHG  1  28   1
M  END
$$$$
