MLZ
 OpenBabel04091912253D

 28 27  0  0  1  0  0  0  0  0999 V2000
   30.0008   21.8608  -56.9693 N   0  3  0  0  0  0  0  0  0  0  0  0
   29.4963   20.9213  -55.8886 C   0  0  1  0  0  0  0  0  0  0  0  0
   29.3414   19.5416  -56.5252 C   0  0  0  0  0  0  0  0  0  0  0  0
   29.0558   18.4087  -55.5252 C   0  0  0  0  0  0  0  0  0  0  0  0
   28.1177   17.3603  -56.1272 C   0  0  0  0  0  0  0  0  0  0  0  0
   28.3062   16.0036  -55.4647 C   0  0  0  0  0  0  0  0  0  0  0  0
   27.2795   15.0509  -55.9955 N   0  3  0  0  0  0  0  0  0  0  0  0
   27.0581   13.8669  -55.1213 C   0  0  0  0  0  0  0  0  0  0  0  0
   30.4646   20.8811  -54.6779 C   0  0  0  0  0  0  0  0  0  0  0  0
   29.9145   20.9177  -53.5594 O   0  0  0  0  0  0  0  0  0  0  0  0
   31.6753   20.9085  -55.0498 O   0  0  0  0  0  0  0  0  0  0  0  0
   30.1630   22.7824  -56.5336 H   0  0  0  0  0  0  0  0  0  0  0  0
   30.9490   21.5383  -57.2166 H   0  0  0  0  0  0  0  0  0  0  0  0
   28.5243   21.3154  -55.5836 H   0  0  0  0  0  0  0  0  0  0  0  0
   30.2403   19.2642  -57.0925 H   0  0  0  0  0  0  0  0  0  0  0  0
   28.5253   19.5978  -57.2578 H   0  0  0  0  0  0  0  0  0  0  0  0
   28.5985   18.7920  -54.6046 H   0  0  0  0  0  0  0  0  0  0  0  0
   30.0088   17.9474  -55.2346 H   0  0  0  0  0  0  0  0  0  0  0  0
   28.2843   17.2651  -57.2076 H   0  0  0  0  0  0  0  0  0  0  0  0
   27.0850   17.7081  -55.9929 H   0  0  0  0  0  0  0  0  0  0  0  0
   28.1756   16.0720  -54.3779 H   0  0  0  0  0  0  0  0  0  0  0  0
   29.2855   15.5783  -55.7005 H   0  0  0  0  0  0  0  0  0  0  0  0
   26.3792   15.5307  -56.1197 H   0  0  0  0  0  0  0  0  0  0  0  0
   26.3065   13.2397  -55.6010 H   0  0  0  0  0  0  0  0  0  0  0  0
   26.6929   14.2265  -54.1537 H   0  0  0  0  0  0  0  0  0  0  0  0
   28.0048   13.3340  -55.0166 H   0  0  0  0  0  0  0  0  0  0  0  0
   29.3946   21.9453  -57.7860 H   0  0  0  0  0  0  0  0  0  0  0  0
   27.5626   14.7295  -56.9319 H   0  0  0  0  0  0  0  0  0  0  0  0
  1  2  1  0  0  0  0
  1 12  1  0  0  0  0
  1 13  1  0  0  0  0
  1 27  1  0  0  0  0
  2  3  1  0  0  0  0
  2  9  1  0  0  0  0
  2 14  1  1  0  0  0
  3  4  1  0  0  0  0
  3 15  1  0  0  0  0
  3 16  1  0  0  0  0
  4  5  1  0  0  0  0
  4 17  1  0  0  0  0
  4 18  1  0  0  0  0
  5  6  1  0  0  0  0
  5 19  1  0  0  0  0
  5 20  1  0  0  0  0
  6  7  1  0  0  0  0
  6 21  1  0  0  0  0
  6 22  1  0  0  0  0
  7  8  1  0  0  0  0
  7 23  1  0  0  0  0
  7 28  1  0  0  0  0
  8 24  1  0  0  0  0
  8 25  1  0  0  0  0
  8 26  1  0  0  0  0
  9 10  2  0  0  0  0
  9 11  1  0  0  0  0
M  CHG  2   1   1   7   1
M  END
$$$$
