MN0
 OpenBabel04091915433D

 43 43  0  0  1  0  0  0  0  0999 V2000
  -33.0359   39.1402   22.0197 C   0  0  0  0  0  0  0  0  0  0  0  0
  -32.9367   40.7172   21.8022 C   0  0  1  0  0  0  0  0  0  0  0  0
  -33.5187   41.0586   20.5049 O   0  0  0  0  0  0  0  0  0  0  0  0
  -33.7624   41.4738   22.8442 C   0  0  0  0  0  0  0  0  0  0  0  0
  -33.0603   41.6657   24.1873 C   0  0  2  0  0  0  0  0  0  0  0  0
  -33.7770   42.6586   24.9449 O   0  0  0  0  0  0  0  0  0  0  0  0
  -31.5910   42.0946   24.0552 C   0  0  1  0  0  0  0  0  0  0  0  0
  -30.9819   42.1430   25.3957 N   0  0  0  0  0  0  0  0  0  0  0  0
  -30.8905   41.1381   23.0825 C   0  0  1  0  0  0  0  0  0  0  0  0
  -31.5767   41.1877   21.8162 O   0  0  0  0  0  0  0  0  0  0  0  0
  -29.4135   41.4667   22.7523 C   0  0  2  0  0  0  0  0  0  0  0  0
  -29.2598   42.8338   22.3431 O   0  0  0  0  0  0  0  0  0  0  0  0
  -28.9214   40.5599   21.5999 C   0  0  2  0  0  0  0  0  0  0  0  0
  -29.3024   39.2011   21.8061 O   0  0  0  0  0  0  0  0  0  0  0  0
  -27.3955   40.5844   21.4697 C   0  0  0  0  0  0  0  0  0  0  0  0
  -26.9569   39.7664   20.3781 O   0  0  0  0  0  0  0  0  0  0  0  0
  -29.9869   43.0123   25.7574 C   0  0  0  0  0  0  0  0  0  0  0  0
  -29.5205   43.8476   24.9601 O   0  0  0  0  0  0  0  0  0  0  0  0
  -29.5070   42.9078   27.1954 C   0  0  0  0  0  0  0  0  0  0  0  0
  -30.1991   41.9209   27.9401 O   0  0  0  0  0  0  0  0  0  0  0  0
  -32.9624   40.2954   19.4375 C   0  0  0  0  0  0  0  0  0  0  0  0
  -31.9174   38.5370   22.0753 O   0  0  0  0  0  0  0  0  0  0  0  0
  -34.2064   38.6578   22.0594 O   0  0  0  0  0  0  0  0  0  0  0  0
  -34.7153   40.9584   23.0202 H   0  0  0  0  0  0  0  0  0  0  0  0
  -34.0352   42.4589   22.4453 H   0  0  0  0  0  0  0  0  0  0  0  0
  -33.1125   40.7271   24.7538 H   0  0  0  0  0  0  0  0  0  0  0  0
  -33.2938   42.7927   25.7842 H   0  0  0  0  0  0  0  0  0  0  0  0
  -31.5626   43.1100   23.6368 H   0  0  0  0  0  0  0  0  0  0  0  0
  -31.2641   41.4656   26.1021 H   0  0  0  0  0  0  0  0  0  0  0  0
  -30.9070   40.1341   23.5258 H   0  0  0  0  0  0  0  0  0  0  0  0
  -28.7784   41.2990   23.6313 H   0  0  0  0  0  0  0  0  0  0  0  0
  -29.5608   43.3950   23.0928 H   0  0  0  0  0  0  0  0  0  0  0  0
  -29.3373   40.9044   20.6444 H   0  0  0  0  0  0  0  0  0  0  0  0
  -30.2935   39.1349   21.8069 H   0  0  0  0  0  0  0  0  0  0  0  0
  -26.9248   40.1915   22.3780 H   0  0  0  0  0  0  0  0  0  0  0  0
  -27.0274   41.5987   21.2940 H   0  0  0  0  0  0  0  0  0  0  0  0
  -27.4338   40.0827   19.5823 H   0  0  0  0  0  0  0  0  0  0  0  0
  -29.6511   43.8877   27.6793 H   0  0  0  0  0  0  0  0  0  0  0  0
  -28.4352   42.6733   27.1822 H   0  0  0  0  0  0  0  0  0  0  0  0
  -29.8265   41.9151   28.8391 H   0  0  0  0  0  0  0  0  0  0  0  0
  -33.4502   40.5938   18.5037 H   0  0  0  0  0  0  0  0  0  0  0  0
  -33.1340   39.2225   19.5652 H   0  0  0  0  0  0  0  0  0  0  0  0
  -31.8915   40.4909   19.3458 H   0  0  0  0  0  0  0  0  0  0  0  0
  1 22  2  0  0  0  0
  1 23  1  0  0  0  0
  2  1  1  1  0  0  0
  2  3  1  0  0  0  0
  2  4  1  0  0  0  0
  2 10  1  0  0  0  0
  3 21  1  0  0  0  0
  4  5  1  0  0  0  0
  4 24  1  0  0  0  0
  4 25  1  0  0  0  0
  5  6  1  0  0  0  0
  5  7  1  0  0  0  0
  5 26  1  1  0  0  0
  6 27  1  0  0  0  0
  7  8  1  0  0  0  0
  7  9  1  0  0  0  0
  7 28  1  6  0  0  0
  8 17  1  0  0  0  0
  8 29  1  0  0  0  0
  9 10  1  0  0  0  0
  9 11  1  0  0  0  0
  9 30  1  1  0  0  0
 11 12  1  0  0  0  0
 11 13  1  0  0  0  0
 11 31  1  1  0  0  0
 12 32  1  0  0  0  0
 13 14  1  0  0  0  0
 13 15  1  0  0  0  0
 13 33  1  6  0  0  0
 14 34  1  0  0  0  0
 15 16  1  0  0  0  0
 15 35  1  0  0  0  0
 15 36  1  0  0  0  0
 16 37  1  0  0  0  0
 17 18  2  0  0  0  0
 17 19  1  0  0  0  0
 19 20  1  0  0  0  0
 19 38  1  0  0  0  0
 19 39  1  0  0  0  0
 20 40  1  0  0  0  0
 21 41  1  0  0  0  0
 21 42  1  0  0  0  0
 21 43  1  0  0  0  0
M  END
$$$$
