MOL
 OpenBabel04091911463D

 58 63  0  0  1  0  0  0  0  0999 V2000
   48.3477   34.1638   39.6128 C   0  0  2  0  0  0  0  0  0  0  0  0
   48.3777   32.6064   39.5439 C   0  0  2  0  0  0  0  0  0  0  0  0
   48.4101   33.4261   38.2686 C   0  0  0  0  0  0  0  0  0  0  0  0
   49.5297   34.8725   40.1549 C   0  0  0  0  0  0  0  0  0  0  0  0
   50.6904   34.3710   39.9283 O   0  0  0  0  0  0  0  0  0  0  0  0
   49.3671   35.9492   40.8318 O   0  0  0  0  0  0  0  0  0  0  0  0
   47.1617   31.8005   39.8338 C   0  0  0  0  0  0  0  0  0  0  0  0
   47.5693   30.6354   40.4826 N   0  0  0  0  0  0  0  0  0  0  0  0
   46.0330   32.0741   39.5486 O   0  0  0  0  0  0  0  0  0  0  0  0
   48.9584   30.6697   40.8501 C   0  0  1  0  0  0  0  0  0  0  0  0
   49.5849   31.7662   39.9502 C   0  0  0  0  0  0  0  0  0  0  0  0
   49.0978   30.9810   42.3287 C   0  0  0  0  0  0  0  0  0  0  0  0
   50.1490   30.4602   43.0844 C   0  0  0  0  0  0  0  0  0  0  0  0
   50.2309   30.7491   44.4488 C   0  0  0  0  0  0  0  0  0  0  0  0
   49.2832   31.5669   45.0793 C   0  0  0  0  0  0  0  0  0  0  0  0
   48.2509   32.1173   44.3222 C   0  0  0  0  0  0  0  0  0  0  0  0
   48.1626   31.8252   42.9610 C   0  0  0  0  0  0  0  0  0  0  0  0
   49.2915   31.8535   46.4256 O   0  0  0  0  0  0  0  0  0  0  0  0
   50.2504   31.1372   47.2381 C   0  0  0  0  0  0  0  0  0  0  0  0
   49.8925   29.6712   47.4846 C   0  0  0  0  0  0  0  0  0  0  0  0
   49.0973   26.9888   47.8951 N   0  0  0  0  0  0  0  0  0  0  0  0
   48.1977   27.9426   47.5427 C   0  0  0  0  0  0  0  0  0  0  0  0
   48.5685   29.2741   47.3402 C   0  0  0  0  0  0  0  0  0  0  0  0
   50.3888   27.3384   48.0267 C   0  0  0  0  0  0  0  0  0  0  0  0
   50.8303   28.6725   47.8376 C   0  0  0  0  0  0  0  0  0  0  0  0
   52.2011   28.9451   48.0080 C   0  0  0  0  0  0  0  0  0  0  0  0
   53.1199   27.9464   48.3378 C   0  0  0  0  0  0  0  0  0  0  0  0
   52.6935   26.6399   48.4973 C   0  0  0  0  0  0  0  0  0  0  0  0
   51.3304   26.3574   48.3575 C   0  0  0  0  0  0  0  0  0  0  0  0
   46.7964   27.5226   47.3353 C   0  0  0  0  0  0  0  0  0  0  0  0
   46.3874   26.1795   47.3248 C   0  0  0  0  0  0  0  0  0  0  0  0
   45.0445   25.8488   47.0929 C   0  0  0  0  0  0  0  0  0  0  0  0
   44.1000   26.8459   46.8427 C   0  0  0  0  0  0  0  0  0  0  0  0
   44.4824   28.1746   46.8380 C   0  0  0  0  0  0  0  0  0  0  0  0
   45.8065   28.4983   47.0976 C   0  0  0  0  0  0  0  0  0  0  0  0
   47.3843   34.6338   39.8329 H   0  0  0  0  0  0  0  0  0  0  0  0
   49.3209   33.4627   37.6825 H   0  0  0  0  0  0  0  0  0  0  0  0
   47.5287   33.3792   37.6299 H   0  0  0  0  0  0  0  0  0  0  0  0
   46.8667   30.0016   40.8427 H   0  0  0  0  0  0  0  0  0  0  0  0
   49.3750   29.6806   40.6201 H   0  0  0  0  0  0  0  0  0  0  0  0
   50.3577   32.2937   40.5034 H   0  0  0  0  0  0  0  0  0  0  0  0
   50.0423   31.3137   39.0591 H   0  0  0  0  0  0  0  0  0  0  0  0
   50.9119   29.8302   42.6283 H   0  0  0  0  0  0  0  0  0  0  0  0
   51.0526   30.3183   45.0039 H   0  0  0  0  0  0  0  0  0  0  0  0
   47.5061   32.7791   44.7606 H   0  0  0  0  0  0  0  0  0  0  0  0
   47.3506   32.2608   42.3789 H   0  0  0  0  0  0  0  0  0  0  0  0
   50.3159   31.6587   48.2056 H   0  0  0  0  0  0  0  0  0  0  0  0
   51.2398   31.2317   46.7801 H   0  0  0  0  0  0  0  0  0  0  0  0
   47.8482   30.0176   47.0204 H   0  0  0  0  0  0  0  0  0  0  0  0
   52.5751   29.9527   47.8811 H   0  0  0  0  0  0  0  0  0  0  0  0
   54.1683   28.1982   48.4703 H   0  0  0  0  0  0  0  0  0  0  0  0
   53.4102   25.8554   48.7306 H   0  0  0  0  0  0  0  0  0  0  0  0
   50.9960   25.3343   48.5196 H   0  0  0  0  0  0  0  0  0  0  0  0
   47.1151   25.3838   47.4823 H   0  0  0  0  0  0  0  0  0  0  0  0
   44.7269   24.8101   47.1021 H   0  0  0  0  0  0  0  0  0  0  0  0
   43.0639   26.5924   46.6501 H   0  0  0  0  0  0  0  0  0  0  0  0
   43.7666   28.9656   46.6358 H   0  0  0  0  0  0  0  0  0  0  0  0
   46.0536   29.5530   47.0969 H   0  0  0  0  0  0  0  0  0  0  0  0
  1  2  1  0  0  0  0
  1  3  1  0  0  0  0
  1  4  1  0  0  0  0
  1 36  1  1  0  0  0
  2  3  1  6  0  0  0
  2  7  1  0  0  0  0
  2 11  1  0  0  0  0
  3 37  1  0  0  0  0
  3 38  1  0  0  0  0
  4  5  2  0  0  0  0
  4  6  1  0  0  0  0
  7  8  1  0  0  0  0
  7  9  2  0  0  0  0
  8 10  1  0  0  0  0
  8 39  1  0  0  0  0
 10 11  1  0  0  0  0
 10 12  1  0  0  0  0
 10 40  1  6  0  0  0
 11 41  1  0  0  0  0
 11 42  1  0  0  0  0
 12 13  2  0  0  0  0
 12 17  1  0  0  0  0
 13 14  1  0  0  0  0
 13 43  1  0  0  0  0
 14 15  2  0  0  0  0
 14 44  1  0  0  0  0
 15 16  1  0  0  0  0
 15 18  1  0  0  0  0
 16 17  2  0  0  0  0
 16 45  1  0  0  0  0
 17 46  1  0  0  0  0
 18 19  1  0  0  0  0
 19 20  1  0  0  0  0
 19 47  1  0  0  0  0
 19 48  1  0  0  0  0
 20 23  2  0  0  0  0
 20 25  1  0  0  0  0
 21 22  2  0  0  0  0
 21 24  1  0  0  0  0
 22 23  1  0  0  0  0
 22 30  1  0  0  0  0
 23 49  1  0  0  0  0
 24 25  2  0  0  0  0
 24 29  1  0  0  0  0
 25 26  1  0  0  0  0
 26 27  2  0  0  0  0
 26 50  1  0  0  0  0
 27 28  1  0  0  0  0
 27 51  1  0  0  0  0
 28 29  2  0  0  0  0
 28 52  1  0  0  0  0
 29 53  1  0  0  0  0
 30 31  2  0  0  0  0
 30 35  1  0  0  0  0
 31 32  1  0  0  0  0
 31 54  1  0  0  0  0
 32 33  2  0  0  0  0
 32 55  1  0  0  0  0
 33 34  1  0  0  0  0
 33 56  1  0  0  0  0
 34 35  2  0  0  0  0
 34 57  1  0  0  0  0
 35 58  1  0  0  0  0
M  END
$$$$
