MS7
 OpenBabel04091913523D

 42 43  0  0  1  0  0  0  0  0999 V2000
  -11.2404   -3.2797  -32.8669 N   0  3  0  0  0  0  0  0  0  0  0  0
  -11.7850   -3.2392  -31.4588 C   0  0  1  0  0  0  0  0  0  0  0  0
  -10.8947   -2.3270  -30.5957 C   0  0  0  0  0  0  0  0  0  0  0  0
   -9.4276   -2.6945  -30.6573 C   0  0  0  0  0  0  0  0  0  0  0  0
   -8.5277   -1.9133  -31.3982 C   0  0  0  0  0  0  0  0  0  0  0  0
   -7.1797   -2.2816  -31.4796 C   0  0  0  0  0  0  0  0  0  0  0  0
   -6.7067   -3.4228  -30.8336 C   0  0  0  0  0  0  0  0  0  0  0  0
   -7.5939   -4.1932  -30.0823 C   0  0  0  0  0  0  0  0  0  0  0  0
   -8.9447   -3.8288  -29.9970 C   0  0  0  0  0  0  0  0  0  0  0  0
   -5.3696   -3.6493  -30.9821 O   0  0  0  0  0  0  0  0  0  0  0  0
   -4.8348   -4.9034  -30.5464 C   0  0  0  0  0  0  0  0  0  0  0  0
   -3.3245   -4.8432  -30.5862 C   0  0  0  0  0  0  0  0  0  0  0  0
   -2.6458   -3.6891  -30.1642 C   0  0  0  0  0  0  0  0  0  0  0  0
   -1.2518   -3.6370  -30.1740 C   0  0  0  0  0  0  0  0  0  0  0  0
   -0.5165   -4.7427  -30.5944 C   0  0  0  0  0  0  0  0  0  0  0  0
   -1.1755   -5.9044  -30.9924 C   0  0  0  0  0  0  0  0  0  0  0  0
   -2.5720   -5.9598  -30.9795 C   0  0  0  0  0  0  0  0  0  0  0  0
  -13.2164   -2.6811  -31.5254 C   0  0  0  0  0  0  0  0  0  0  0  0
  -13.4074   -1.5827  -32.0458 O   0  0  0  0  0  0  0  0  0  0  0  0
  -14.2317   -3.5191  -31.1305 N   0  0  0  0  0  0  0  0  0  0  0  0
  -15.6116   -3.0755  -31.1693 C   0  0  0  0  0  0  0  0  0  0  0  0
  -11.8142   -3.8724  -33.4799 H   0  0  0  0  0  0  0  0  0  0  0  0
  -11.2746   -2.3272  -33.2629 H   0  0  0  0  0  0  0  0  0  0  0  0
  -11.7806   -4.2756  -31.1019 H   0  0  0  0  0  0  0  0  0  0  0  0
  -11.2274   -2.3720  -29.5505 H   0  0  0  0  0  0  0  0  0  0  0  0
  -11.0175   -1.2773  -30.8918 H   0  0  0  0  0  0  0  0  0  0  0  0
   -8.8454   -1.0018  -31.8991 H   0  0  0  0  0  0  0  0  0  0  0  0
   -6.4827   -1.6617  -32.0429 H   0  0  0  0  0  0  0  0  0  0  0  0
   -7.2632   -5.0620  -29.5262 H   0  0  0  0  0  0  0  0  0  0  0  0
   -9.6014   -4.4368  -29.3742 H   0  0  0  0  0  0  0  0  0  0  0  0
   -5.1979   -5.6859  -31.2230 H   0  0  0  0  0  0  0  0  0  0  0  0
   -5.1236   -5.1356  -29.5153 H   0  0  0  0  0  0  0  0  0  0  0  0
   -3.2042   -2.8170  -29.8304 H   0  0  0  0  0  0  0  0  0  0  0  0
   -0.7408   -2.7323  -29.8547 H   0  0  0  0  0  0  0  0  0  0  0  0
    0.5692   -4.6986  -30.6079 H   0  0  0  0  0  0  0  0  0  0  0  0
   -0.5978   -6.7680  -31.3132 H   0  0  0  0  0  0  0  0  0  0  0  0
   -3.0622   -6.8821  -31.2825 H   0  0  0  0  0  0  0  0  0  0  0  0
  -14.0586   -4.4308  -30.7223 H   0  0  0  0  0  0  0  0  0  0  0  0
  -16.2537   -3.8841  -30.8134 H   0  0  0  0  0  0  0  0  0  0  0  0
  -15.8808   -2.8096  -32.1953 H   0  0  0  0  0  0  0  0  0  0  0  0
  -15.7258   -2.1981  -30.5262 H   0  0  0  0  0  0  0  0  0  0  0  0
  -10.2661   -3.6083  -32.8979 H   0  0  0  0  0  0  0  0  0  0  0  0
  1  2  1  0  0  0  0
  1 22  1  0  0  0  0
  1 23  1  0  0  0  0
  1 42  1  0  0  0  0
  2  3  1  0  0  0  0
  2 18  1  0  0  0  0
  2 24  1  1  0  0  0
  3  4  1  0  0  0  0
  3 25  1  0  0  0  0
  3 26  1  0  0  0  0
  4  5  2  0  0  0  0
  4  9  1  0  0  0  0
  5  6  1  0  0  0  0
  5 27  1  0  0  0  0
  6  7  2  0  0  0  0
  6 28  1  0  0  0  0
  7  8  1  0  0  0  0
  7 10  1  0  0  0  0
  8  9  2  0  0  0  0
  8 29  1  0  0  0  0
  9 30  1  0  0  0  0
 10 11  1  0  0  0  0
 11 12  1  0  0  0  0
 11 31  1  0  0  0  0
 11 32  1  0  0  0  0
 12 13  2  0  0  0  0
 12 17  1  0  0  0  0
 13 14  1  0  0  0  0
 13 33  1  0  0  0  0
 14 15  2  0  0  0  0
 14 34  1  0  0  0  0
 15 16  1  0  0  0  0
 15 35  1  0  0  0  0
 16 17  2  0  0  0  0
 16 36  1  0  0  0  0
 17 37  1  0  0  0  0
 18 19  2  0  0  0  0
 18 20  1  0  0  0  0
 20 21  1  0  0  0  0
 20 38  1  0  0  0  0
 21 39  1  0  0  0  0
 21 40  1  0  0  0  0
 21 41  1  0  0  0  0
M  CHG  1   1   1
M  END
$$$$
