MTT
 OpenBabel04091913193D

 87 90  0  0  1  0  0  0  0  0999 V2000
   -4.7190  -13.2362   18.7685 O   0  0  0  0  0  0  0  0  0  0  0  0
   -5.0211  -12.2535   19.7658 C   0  0  1  0  0  0  0  0  0  0  0  0
   -6.4353  -11.6569   19.5679 C   0  0  1  0  0  0  0  0  0  0  0  0
   -7.2532  -12.5458   18.7890 O   0  0  0  0  0  0  0  0  0  0  0  0
   -7.1549  -11.2112   20.8591 C   0  0  1  0  0  0  0  0  0  0  0  0
   -8.3257  -12.0085   21.1271 O   0  0  0  0  0  0  0  0  0  0  0  0
   -6.2360  -11.2924   22.0863 C   0  0  1  0  0  0  0  0  0  0  0  0
   -4.7148  -12.8511   21.1481 C   0  0  2  0  0  0  0  0  0  0  0  0
   -5.6569  -12.5833   22.1694 O   0  0  0  0  0  0  0  0  0  0  0  0
   -3.3260  -12.3654   21.6143 C   0  0  0  0  0  0  0  0  0  0  0  0
   -3.1606  -12.5495   23.0213 O   0  0  0  0  0  0  0  0  0  0  0  0
   -5.2218  -10.2920   22.0816 O   0  0  0  0  0  0  0  0  0  0  0  0
   -5.1483   -9.4836   23.2772 C   0  0  1  0  0  0  0  0  0  0  0  0
   -3.6908   -8.9845   23.4500 C   0  0  2  0  0  0  0  0  0  0  0  0
   -2.8487  -10.0194   23.9471 O   0  0  0  0  0  0  0  0  0  0  0  0
   -3.6558   -7.8448   24.4788 C   0  0  1  0  0  0  0  0  0  0  0  0
   -2.3443   -7.3784   24.7567 O   0  0  0  0  0  0  0  0  0  0  0  0
   -4.5189   -6.7073   23.9439 C   0  0  2  0  0  0  0  0  0  0  0  0
   -6.1177   -8.3068   23.1015 C   0  0  2  0  0  0  0  0  0  0  0  0
   -5.8587   -7.1577   23.9282 O   0  0  0  0  0  0  0  0  0  0  0  0
   -7.5699   -8.6980   23.4151 C   0  0  0  0  0  0  0  0  0  0  0  0
   -8.4150   -8.1260   22.4213 O   0  0  0  0  0  0  0  0  0  0  0  0
   -4.0339   -6.2909   22.6525 O   0  0  0  0  0  0  0  0  0  0  0  0
   -4.1457   -4.8712   22.3991 C   0  0  1  0  0  0  0  0  0  0  0  0
   -2.8141   -4.3808   21.7675 C   0  0  2  0  0  0  0  0  0  0  0  0
   -1.7579   -4.5209   22.7370 O   0  0  0  0  0  0  0  0  0  0  0  0
   -2.9302   -2.8919   21.4067 C   0  0  1  0  0  0  0  0  0  0  0  0
   -1.7207   -2.4231   20.7919 O   0  0  0  0  0  0  0  0  0  0  0  0
   -4.1567   -2.6624   20.5064 C   0  0  2  0  0  0  0  0  0  0  0  0
   -5.3093   -4.5447   21.4445 C   0  0  2  0  0  0  0  0  0  0  0  0
   -5.3499   -3.1300   21.1388 O   0  0  0  0  0  0  0  0  0  0  0  0
   -6.6781   -4.8808   22.0477 C   0  0  0  0  0  0  0  0  0  0  0  0
   -7.7259   -4.6289   21.0987 O   0  0  0  0  0  0  0  0  0  0  0  0
   -3.9841   -3.3294   19.2590 O   0  0  0  0  0  0  0  0  0  0  0  0
   -4.3214   -2.5369   18.1107 C   0  0  1  0  0  0  0  0  0  0  0  0
   -3.0210   -2.0848   17.4272 C   0  0  2  0  0  0  0  0  0  0  0  0
   -2.3472   -1.0996   18.2275 O   0  0  0  0  0  0  0  0  0  0  0  0
   -3.3225   -1.4957   16.0459 C   0  0  1  0  0  0  0  0  0  0  0  0
   -2.0944   -1.0816   15.4273 O   0  0  0  0  0  0  0  0  0  0  0  0
   -4.0769   -2.5536   15.2221 C   0  0  1  0  0  0  0  0  0  0  0  0
   -3.2922   -3.7285   15.0817 O   0  0  0  0  0  0  0  0  0  0  0  0
   -5.1455   -3.4321   17.1621 C   0  0  2  0  0  0  0  0  0  0  0  0
   -5.3151   -2.8674   15.8482 O   0  0  0  0  0  0  0  0  0  0  0  0
   -6.5539   -3.6732   17.7205 C   0  0  0  0  0  0  0  0  0  0  0  0
   -7.2780   -2.4464   17.8221 O   0  0  0  0  0  0  0  0  0  0  0  0
   -5.4168  -13.9158   18.8610 H   0  0  0  0  0  0  0  0  0  0  0  0
   -4.3175  -11.4325   19.5694 H   0  0  0  0  0  0  0  0  0  0  0  0
   -6.2954  -10.7578   18.9488 H   0  0  0  0  0  0  0  0  0  0  0  0
   -8.0734  -12.0760   18.5641 H   0  0  0  0  0  0  0  0  0  0  0  0
   -7.5122  -10.1810   20.7267 H   0  0  0  0  0  0  0  0  0  0  0  0
   -8.9242  -11.9609   20.3655 H   0  0  0  0  0  0  0  0  0  0  0  0
   -6.8366  -11.2636   22.9917 H   0  0  0  0  0  0  0  0  0  0  0  0
   -4.6638  -13.9502   21.0903 H   0  0  0  0  0  0  0  0  0  0  0  0
   -3.2164  -11.2882   21.4276 H   0  0  0  0  0  0  0  0  0  0  0  0
   -2.5351  -12.8579   21.0831 H   0  0  0  0  0  0  0  0  0  0  0  0
   -3.9990  -12.2818   23.4502 H   0  0  0  0  0  0  0  0  0  0  0  0
   -5.3939  -10.0980   24.1535 H   0  0  0  0  0  0  0  0  0  0  0  0
   -3.2668   -8.6686   22.4850 H   0  0  0  0  0  0  0  0  0  0  0  0
   -2.7256  -10.7059   23.2762 H   0  0  0  0  0  0  0  0  0  0  0  0
   -4.0704   -8.2173   25.4259 H   0  0  0  0  0  0  0  0  0  0  0  0
   -1.9321   -7.1546   23.9133 H   0  0  0  0  0  0  0  0  0  0  0  0
   -4.4580   -5.8720   24.6527 H   0  0  0  0  0  0  0  0  0  0  0  0
   -6.0604   -7.9813   22.0526 H   0  0  0  0  0  0  0  0  0  0  0  0
   -7.8800   -8.3501   24.4018 H   0  0  0  0  0  0  0  0  0  0  0  0
   -7.7808   -9.7573   23.3906 H   0  0  0  0  0  0  0  0  0  0  0  0
   -9.3404   -8.3383   22.6571 H   0  0  0  0  0  0  0  0  0  0  0  0
   -4.2627   -4.3306   23.3411 H   0  0  0  0  0  0  0  0  0  0  0  0
   -2.5297   -4.9794   20.8976 H   0  0  0  0  0  0  0  0  0  0  0  0
   -1.6038   -5.4699   22.8533 H   0  0  0  0  0  0  0  0  0  0  0  0
   -3.0471   -2.3254   22.3366 H   0  0  0  0  0  0  0  0  0  0  0  0
   -1.8918   -1.5232   20.4537 H   0  0  0  0  0  0  0  0  0  0  0  0
   -4.2650   -1.5814   20.3615 H   0  0  0  0  0  0  0  0  0  0  0  0
   -5.2085   -5.1100   20.5100 H   0  0  0  0  0  0  0  0  0  0  0  0
   -6.8791   -4.2605   22.9322 H   0  0  0  0  0  0  0  0  0  0  0  0
   -6.7522   -5.9143   22.3096 H   0  0  0  0  0  0  0  0  0  0  0  0
   -7.6422   -3.7373   20.8295 H   0  0  0  0  0  0  0  0  0  0  0  0
   -4.9012   -1.6483   18.3883 H   0  0  0  0  0  0  0  0  0  0  0  0
   -2.3228   -2.9297   17.3480 H   0  0  0  0  0  0  0  0  0  0  0  0
   -1.5349   -0.9008   17.7183 H   0  0  0  0  0  0  0  0  0  0  0  0
   -3.9410   -0.5964   16.1608 H   0  0  0  0  0  0  0  0  0  0  0  0
   -2.3077   -0.8025   14.5192 H   0  0  0  0  0  0  0  0  0  0  0  0
   -4.2878   -2.1676   14.2175 H   0  0  0  0  0  0  0  0  0  0  0  0
   -3.8014   -4.3313   14.5092 H   0  0  0  0  0  0  0  0  0  0  0  0
   -4.6621   -4.4132   17.0690 H   0  0  0  0  0  0  0  0  0  0  0  0
   -6.5180   -4.1343   18.7075 H   0  0  0  0  0  0  0  0  0  0  0  0
   -7.1188   -4.3314   17.0514 H   0  0  0  0  0  0  0  0  0  0  0  0
   -7.2950   -2.0710   16.9206 H   0  0  0  0  0  0  0  0  0  0  0  0
  1  2  1  0  0  0  0
  1 46  1  0  0  0  0
  2  3  1  0  0  0  0
  2  8  1  0  0  0  0
  2 47  1  6  0  0  0
  3  4  1  0  0  0  0
  3  5  1  0  0  0  0
  3 48  1  6  0  0  0
  4 49  1  0  0  0  0
  5  6  1  0  0  0  0
  5  7  1  0  0  0  0
  5 50  1  6  0  0  0
  6 51  1  0  0  0  0
  7  9  1  0  0  0  0
  7 12  1  0  0  0  0
  7 52  1  1  0  0  0
  8  9  1  0  0  0  0
  8 10  1  0  0  0  0
  8 53  1  6  0  0  0
 10 11  1  0  0  0  0
 10 54  1  0  0  0  0
 10 55  1  0  0  0  0
 11 56  1  0  0  0  0
 12 13  1  0  0  0  0
 13 14  1  0  0  0  0
 13 19  1  0  0  0  0
 13 57  1  1  0  0  0
 14 15  1  0  0  0  0
 14 16  1  0  0  0  0
 14 58  1  6  0  0  0
 15 59  1  0  0  0  0
 16 17  1  0  0  0  0
 16 18  1  0  0  0  0
 16 60  1  1  0  0  0
 17 61  1  0  0  0  0
 18 20  1  0  0  0  0
 18 23  1  0  0  0  0
 18 62  1  1  0  0  0
 19 20  1  0  0  0  0
 19 21  1  0  0  0  0
 19 63  1  6  0  0  0
 21 22  1  0  0  0  0
 21 64  1  0  0  0  0
 21 65  1  0  0  0  0
 22 66  1  0  0  0  0
 23 24  1  0  0  0  0
 24 25  1  0  0  0  0
 24 30  1  0  0  0  0
 24 67  1  1  0  0  0
 25 26  1  0  0  0  0
 25 27  1  0  0  0  0
 25 68  1  6  0  0  0
 26 69  1  0  0  0  0
 27 28  1  0  0  0  0
 27 29  1  0  0  0  0
 27 70  1  1  0  0  0
 28 71  1  0  0  0  0
 29 31  1  0  0  0  0
 29 34  1  0  0  0  0
 29 72  1  6  0  0  0
 30 31  1  0  0  0  0
 30 32  1  0  0  0  0
 30 73  1  6  0  0  0
 32 33  1  0  0  0  0
 32 74  1  0  0  0  0
 32 75  1  0  0  0  0
 33 76  1  0  0  0  0
 34 35  1  0  0  0  0
 35 36  1  0  0  0  0
 35 42  1  0  0  0  0
 35 77  1  1  0  0  0
 36 37  1  0  0  0  0
 36 38  1  0  0  0  0
 36 78  1  6  0  0  0
 37 79  1  0  0  0  0
 38 39  1  0  0  0  0
 38 40  1  0  0  0  0
 38 80  1  1  0  0  0
 39 81  1  0  0  0  0
 40 41  1  0  0  0  0
 40 43  1  0  0  0  0
 40 82  1  6  0  0  0
 41 83  1  0  0  0  0
 42 43  1  0  0  0  0
 42 44  1  0  0  0  0
 42 84  1  6  0  0  0
 44 45  1  0  0  0  0
 44 85  1  0  0  0  0
 44 86  1  0  0  0  0
 45 87  1  0  0  0  0
M  END
$$$$
