MVL
 OpenBabel04091911203D

 26 27  0  0  1  0  0  0  0  0999 V2000
   30.9641   65.6528   10.2470 C   0  0  0  0  0  0  0  0  0  0  0  0
   29.8881   65.9155    9.4419 N   0  3  0  0  0  0  0  0  0  0  0  0
   32.5231   66.1288    8.2882 C   0  0  2  0  0  0  0  0  0  0  0  0
   31.2991   65.8397    7.3951 C   0  0  1  0  0  0  0  0  0  0  0  0
   29.9523   66.2475    8.0266 C   0  0  1  0  0  0  0  0  0  0  0  0
   28.8094   65.6352    7.1826 C   0  0  0  0  0  0  0  0  0  0  0  0
   29.2293   65.7568   11.5086 C   0  0  0  0  0  0  0  0  0  0  0  0
   28.7768   66.0416   10.2469 C   0  0  0  0  0  0  0  0  0  0  0  0
   30.5828   65.5279   11.5068 N   0  0  0  0  0  0  0  0  0  0  0  0
   33.6975   65.5273    7.7161 O   0  0  0  0  0  0  0  0  0  0  0  0
   32.9152   64.3375    9.9019 O   0  0  0  0  0  0  0  0  0  0  0  0
   31.4389   66.6225    6.1859 O   0  0  0  0  0  0  0  0  0  0  0  0
   32.3703   65.6538    9.7461 C   0  0  2  0  0  0  0  0  0  0  0  0
   27.5115   66.0992    7.5431 O   0  0  0  0  0  0  0  0  0  0  0  0
   32.6935   67.2092    8.2936 H   0  0  0  0  0  0  0  0  0  0  0  0
   31.2914   64.7843    7.0929 H   0  0  0  0  0  0  0  0  0  0  0  0
   29.8487   67.3408    7.9883 H   0  0  0  0  0  0  0  0  0  0  0  0
   28.8100   64.5425    7.2637 H   0  0  0  0  0  0  0  0  0  0  0  0
   28.9405   65.8897    6.1247 H   0  0  0  0  0  0  0  0  0  0  0  0
   28.6499   65.7316   12.4274 H   0  0  0  0  0  0  0  0  0  0  0  0
   27.7991   66.3113    9.8884 H   0  0  0  0  0  0  0  0  0  0  0  0
   33.8676   65.9285    6.8510 H   0  0  0  0  0  0  0  0  0  0  0  0
   33.8402   64.4276    9.5914 H   0  0  0  0  0  0  0  0  0  0  0  0
   32.2692   66.3770    5.7448 H   0  0  0  0  0  0  0  0  0  0  0  0
   32.9611   66.3201   10.3873 H   0  0  0  0  0  0  0  0  0  0  0  0
   27.5225   67.0711    7.5488 H   0  0  0  0  0  0  0  0  0  0  0  0
  1  2  2  0  0  0  0
  1  9  1  0  0  0  0
  1 13  1  0  0  0  0
  2  5  1  0  0  0  0
  2  8  1  0  0  0  0
  3  4  1  0  0  0  0
  3 10  1  0  0  0  0
  3 13  1  0  0  0  0
  3 15  1  1  0  0  0
  4  5  1  0  0  0  0
  4 12  1  0  0  0  0
  4 16  1  6  0  0  0
  5  6  1  0  0  0  0
  5 17  1  6  0  0  0
  6 14  1  0  0  0  0
  6 18  1  0  0  0  0
  6 19  1  0  0  0  0
  7  8  2  0  0  0  0
  7  9  1  0  0  0  0
  7 20  1  0  0  0  0
  8 21  1  0  0  0  0
 10 22  1  0  0  0  0
 11 13  1  0  0  0  0
 11 23  1  0  0  0  0
 12 24  1  0  0  0  0
 13 25  1  1  0  0  0
 14 26  1  0  0  0  0
M  CHG  1   2   1
M  END
$$$$
