MYR
 OpenBabel04091916013D

 43 42  0  0  0  0  0  0  0  0999 V2000
  -34.3807  -17.6252  -41.0848 C   0  0  0  0  0  0  0  0  0  0  0  0
  -33.8570  -18.2234  -40.1059 O   0  0  0  0  0  0  0  0  0  0  0  0
  -33.9315  -16.6506  -41.7509 O   0  0  0  0  0  0  0  0  0  0  0  0
  -35.7796  -18.1048  -41.5134 C   0  0  0  0  0  0  0  0  0  0  0  0
  -36.0234  -19.6017  -41.3475 C   0  0  0  0  0  0  0  0  0  0  0  0
  -36.3849  -20.3132  -42.6515 C   0  0  0  0  0  0  0  0  0  0  0  0
  -36.2372  -21.8373  -42.5605 C   0  0  0  0  0  0  0  0  0  0  0  0
  -34.9224  -22.3525  -43.1674 C   0  0  0  0  0  0  0  0  0  0  0  0
  -33.6650  -21.8945  -42.4176 C   0  0  0  0  0  0  0  0  0  0  0  0
  -32.9865  -23.0113  -41.6277 C   0  0  0  0  0  0  0  0  0  0  0  0
  -33.5005  -23.0912  -40.1870 C   0  0  0  0  0  0  0  0  0  0  0  0
  -33.5471  -24.5370  -39.6870 C   0  0  0  0  0  0  0  0  0  0  0  0
  -34.9880  -24.9594  -39.3903 C   0  0  0  0  0  0  0  0  0  0  0  0
  -35.0575  -26.4044  -38.8823 C   0  0  0  0  0  0  0  0  0  0  0  0
  -36.1292  -27.2148  -39.6210 C   0  0  0  0  0  0  0  0  0  0  0  0
  -37.3599  -27.4695  -38.7686 C   0  0  0  0  0  0  0  0  0  0  0  0
  -35.9540  -17.7946  -42.5483 H   0  0  0  0  0  0  0  0  0  0  0  0
  -36.4975  -17.5452  -40.8980 H   0  0  0  0  0  0  0  0  0  0  0  0
  -36.8378  -19.7615  -40.6218 H   0  0  0  0  0  0  0  0  0  0  0  0
  -35.1591  -20.0653  -40.8727 H   0  0  0  0  0  0  0  0  0  0  0  0
  -35.7832  -19.9314  -43.4855 H   0  0  0  0  0  0  0  0  0  0  0  0
  -37.4299  -20.0757  -42.8888 H   0  0  0  0  0  0  0  0  0  0  0  0
  -37.0601  -22.3007  -43.1277 H   0  0  0  0  0  0  0  0  0  0  0  0
  -36.3407  -22.1840  -41.5234 H   0  0  0  0  0  0  0  0  0  0  0  0
  -34.8580  -22.0109  -44.2007 H   0  0  0  0  0  0  0  0  0  0  0  0
  -34.9674  -23.4483  -43.2105 H   0  0  0  0  0  0  0  0  0  0  0  0
  -33.8546  -21.0713  -41.7409 H   0  0  0  0  0  0  0  0  0  0  0  0
  -32.9513  -21.4983  -43.1555 H   0  0  0  0  0  0  0  0  0  0  0  0
  -31.9100  -22.8160  -41.6015 H   0  0  0  0  0  0  0  0  0  0  0  0
  -33.1157  -23.9595  -42.1628 H   0  0  0  0  0  0  0  0  0  0  0  0
  -34.4830  -22.6230  -40.0891 H   0  0  0  0  0  0  0  0  0  0  0  0
  -32.8259  -22.5136  -39.5511 H   0  0  0  0  0  0  0  0  0  0  0  0
  -32.9378  -24.6354  -38.7821 H   0  0  0  0  0  0  0  0  0  0  0  0
  -33.1198  -25.2211  -40.4303 H   0  0  0  0  0  0  0  0  0  0  0  0
  -35.5802  -24.8253  -40.3041 H   0  0  0  0  0  0  0  0  0  0  0  0
  -35.4216  -24.2915  -38.6367 H   0  0  0  0  0  0  0  0  0  0  0  0
  -35.2472  -26.3967  -37.8036 H   0  0  0  0  0  0  0  0  0  0  0  0
  -34.0933  -26.8991  -39.0221 H   0  0  0  0  0  0  0  0  0  0  0  0
  -35.7023  -28.1816  -39.9137 H   0  0  0  0  0  0  0  0  0  0  0  0
  -36.4382  -26.7238  -40.5510 H   0  0  0  0  0  0  0  0  0  0  0  0
  -38.0945  -28.0476  -39.3376 H   0  0  0  0  0  0  0  0  0  0  0  0
  -37.8261  -26.5293  -38.4606 H   0  0  0  0  0  0  0  0  0  0  0  0
  -37.1002  -28.0415  -37.8715 H   0  0  0  0  0  0  0  0  0  0  0  0
  1  2  2  0  0  0  0
  1  3  1  0  0  0  0
  1  4  1  0  0  0  0
  4  5  1  0  0  0  0
  4 17  1  0  0  0  0
  4 18  1  0  0  0  0
  5  6  1  0  0  0  0
  5 19  1  0  0  0  0
  5 20  1  0  0  0  0
  6  7  1  0  0  0  0
  6 21  1  0  0  0  0
  6 22  1  0  0  0  0
  7  8  1  0  0  0  0
  7 23  1  0  0  0  0
  7 24  1  0  0  0  0
  8  9  1  0  0  0  0
  8 25  1  0  0  0  0
  8 26  1  0  0  0  0
  9 10  1  0  0  0  0
  9 27  1  0  0  0  0
  9 28  1  0  0  0  0
 10 11  1  0  0  0  0
 10 29  1  0  0  0  0
 10 30  1  0  0  0  0
 11 12  1  0  0  0  0
 11 31  1  0  0  0  0
 11 32  1  0  0  0  0
 12 13  1  0  0  0  0
 12 33  1  0  0  0  0
 12 34  1  0  0  0  0
 13 14  1  0  0  0  0
 13 35  1  0  0  0  0
 13 36  1  0  0  0  0
 14 15  1  0  0  0  0
 14 37  1  0  0  0  0
 14 38  1  0  0  0  0
 15 16  1  0  0  0  0
 15 39  1  0  0  0  0
 15 40  1  0  0  0  0
 16 41  1  0  0  0  0
 16 42  1  0  0  0  0
 16 43  1  0  0  0  0
M  END
$$$$
