MYR
 OpenBabel04091916313D

 43 42  0  0  0  0  0  0  0  0999 V2000
   -5.2815   15.3685  -16.4260 C   0  0  0  0  0  0  0  0  0  0  0  0
   -4.4246   14.9657  -15.5903 O   0  0  0  0  0  0  0  0  0  0  0  0
   -5.8179   16.5070  -16.5422 O   0  0  0  0  0  0  0  0  0  0  0  0
   -5.7068   14.3439  -17.4806 C   0  0  0  0  0  0  0  0  0  0  0  0
   -6.2244   13.0427  -16.8619 C   0  0  0  0  0  0  0  0  0  0  0  0
   -7.7561   13.0205  -16.7865 C   0  0  0  0  0  0  0  0  0  0  0  0
   -8.3575   12.0264  -17.7734 C   0  0  0  0  0  0  0  0  0  0  0  0
   -9.7936   12.4268  -18.0933 C   0  0  0  0  0  0  0  0  0  0  0  0
  -10.4366   11.4654  -19.0667 C   0  0  0  0  0  0  0  0  0  0  0  0
  -11.8291   11.9519  -19.4653 C   0  0  0  0  0  0  0  0  0  0  0  0
  -12.3592   11.0159  -20.5235 C   0  0  0  0  0  0  0  0  0  0  0  0
  -13.6262   11.4836  -21.2326 C   0  0  0  0  0  0  0  0  0  0  0  0
  -13.9650   10.3549  -22.1948 C   0  0  0  0  0  0  0  0  0  0  0  0
  -14.7521   10.7100  -23.4417 C   0  0  0  0  0  0  0  0  0  0  0  0
  -14.4795    9.6657  -24.5382 C   0  0  0  0  0  0  0  0  0  0  0  0
  -14.4869    8.2216  -24.0506 C   0  0  0  0  0  0  0  0  0  0  0  0
   -4.8167   14.1285  -18.0833 H   0  0  0  0  0  0  0  0  0  0  0  0
   -6.4435   14.7826  -18.1647 H   0  0  0  0  0  0  0  0  0  0  0  0
   -5.8222   12.8996  -15.8523 H   0  0  0  0  0  0  0  0  0  0  0  0
   -5.8597   12.1972  -17.4568 H   0  0  0  0  0  0  0  0  0  0  0  0
   -8.1638   14.0201  -16.9494 H   0  0  0  0  0  0  0  0  0  0  0  0
   -8.0611   12.7272  -15.7717 H   0  0  0  0  0  0  0  0  0  0  0  0
   -8.3271   11.0098  -17.3495 H   0  0  0  0  0  0  0  0  0  0  0  0
   -7.7829   11.9969  -18.7054 H   0  0  0  0  0  0  0  0  0  0  0  0
   -9.7931   13.4308  -18.5330 H   0  0  0  0  0  0  0  0  0  0  0  0
  -10.3912   12.4752  -17.1677 H   0  0  0  0  0  0  0  0  0  0  0  0
  -10.4989   10.4597  -18.6297 H   0  0  0  0  0  0  0  0  0  0  0  0
   -9.8052   11.3794  -19.9634 H   0  0  0  0  0  0  0  0  0  0  0  0
  -11.7759   12.9751  -19.8553 H   0  0  0  0  0  0  0  0  0  0  0  0
  -12.4951   11.9588  -18.5948 H   0  0  0  0  0  0  0  0  0  0  0  0
  -12.5295   10.0279  -20.0744 H   0  0  0  0  0  0  0  0  0  0  0  0
  -11.5784   10.8827  -21.2856 H   0  0  0  0  0  0  0  0  0  0  0  0
  -13.4367   12.4242  -21.7629 H   0  0  0  0  0  0  0  0  0  0  0  0
  -14.4446   11.6527  -20.5227 H   0  0  0  0  0  0  0  0  0  0  0  0
  -14.4961    9.5729  -21.6369 H   0  0  0  0  0  0  0  0  0  0  0  0
  -13.0177    9.9135  -22.5312 H   0  0  0  0  0  0  0  0  0  0  0  0
  -14.4699   11.6975  -23.8191 H   0  0  0  0  0  0  0  0  0  0  0  0
  -15.8231   10.7451  -23.2126 H   0  0  0  0  0  0  0  0  0  0  0  0
  -13.4935    9.8694  -24.9802 H   0  0  0  0  0  0  0  0  0  0  0  0
  -15.2108    9.7891  -25.3401 H   0  0  0  0  0  0  0  0  0  0  0  0
  -14.3487    7.5319  -24.8875 H   0  0  0  0  0  0  0  0  0  0  0  0
  -15.4337    7.9816  -23.5532 H   0  0  0  0  0  0  0  0  0  0  0  0
  -13.6737    8.0159  -23.3418 H   0  0  0  0  0  0  0  0  0  0  0  0
  1  2  2  0  0  0  0
  1  3  1  0  0  0  0
  1  4  1  0  0  0  0
  4  5  1  0  0  0  0
  4 17  1  0  0  0  0
  4 18  1  0  0  0  0
  5  6  1  0  0  0  0
  5 19  1  0  0  0  0
  5 20  1  0  0  0  0
  6  7  1  0  0  0  0
  6 21  1  0  0  0  0
  6 22  1  0  0  0  0
  7  8  1  0  0  0  0
  7 23  1  0  0  0  0
  7 24  1  0  0  0  0
  8  9  1  0  0  0  0
  8 25  1  0  0  0  0
  8 26  1  0  0  0  0
  9 10  1  0  0  0  0
  9 27  1  0  0  0  0
  9 28  1  0  0  0  0
 10 11  1  0  0  0  0
 10 29  1  0  0  0  0
 10 30  1  0  0  0  0
 11 12  1  0  0  0  0
 11 31  1  0  0  0  0
 11 32  1  0  0  0  0
 12 13  1  0  0  0  0
 12 33  1  0  0  0  0
 12 34  1  0  0  0  0
 13 14  1  0  0  0  0
 13 35  1  0  0  0  0
 13 36  1  0  0  0  0
 14 15  1  0  0  0  0
 14 37  1  0  0  0  0
 14 38  1  0  0  0  0
 15 16  1  0  0  0  0
 15 39  1  0  0  0  0
 15 40  1  0  0  0  0
 16 41  1  0  0  0  0
 16 42  1  0  0  0  0
 16 43  1  0  0  0  0
M  END
$$$$
