N1Y
 OpenBabel04091916353D

 29 30  0  0  0  0  0  0  0  0999 V2000
   54.7299  -14.4848  -31.2698 Cl  0  0  0  0  0  0  0  0  0  0  0  0
   55.8264  -13.8975  -30.0928 C   0  0  0  0  0  0  0  0  0  0  0  0
   55.3374  -12.9345  -29.2861 N   0  0  0  0  0  0  0  0  0  0  0  0
   56.1751  -12.4399  -28.3480 C   0  0  0  0  0  0  0  0  0  0  0  0
   57.4825  -12.8760  -28.1500 C   0  0  0  0  0  0  0  0  0  0  0  0
   58.3803  -12.2492  -27.1134 C   0  0  0  0  0  0  0  0  0  0  0  0
   57.8974  -12.4593  -25.7428 N   0  0  0  0  0  0  0  0  0  0  0  0
   57.9481  -13.8786  -29.0129 C   0  0  0  0  0  0  0  0  0  0  0  0
   57.1096  -14.4015  -29.9989 C   0  0  0  0  0  0  0  0  0  0  0  0
   58.0037  -13.5940  -24.9724 C   0  0  0  0  0  0  0  0  0  0  0  0
   58.5186  -14.7763  -25.3285 C   0  0  0  0  0  0  0  0  0  0  0  0
   57.4776  -13.3219  -23.6758 N   0  0  0  0  0  0  0  0  0  0  0  0
   57.0245  -11.8835  -23.6430 C   0  0  0  0  0  0  0  0  0  0  0  0
   57.3386  -11.3183  -25.0274 C   0  0  0  0  0  0  0  0  0  0  0  0
   58.5702  -15.9191  -24.4697 N   0  0  0  0  0  0  0  0  0  0  0  0
   58.1133  -15.8118  -23.3226 O   0  0  0  0  0  0  0  0  0  0  0  0
   59.0774  -16.9355  -24.9514 O   0  0  0  0  0  0  0  0  0  0  0  0
   55.7400  -11.6439  -27.7502 H   0  0  0  0  0  0  0  0  0  0  0  0
   58.4676  -11.1763  -27.3264 H   0  0  0  0  0  0  0  0  0  0  0  0
   59.3974  -12.6515  -27.2062 H   0  0  0  0  0  0  0  0  0  0  0  0
   58.9689  -14.2472  -28.9501 H   0  0  0  0  0  0  0  0  0  0  0  0
   57.4545  -15.1739  -30.6793 H   0  0  0  0  0  0  0  0  0  0  0  0
   58.9364  -15.0155  -26.2919 H   0  0  0  0  0  0  0  0  0  0  0  0
   56.6952  -13.9551  -23.4540 H   0  0  0  0  0  0  0  0  0  0  0  0
   57.5756  -11.3761  -22.8447 H   0  0  0  0  0  0  0  0  0  0  0  0
   55.9533  -11.8770  -23.4204 H   0  0  0  0  0  0  0  0  0  0  0  0
   56.4283  -10.9568  -25.5142 H   0  0  0  0  0  0  0  0  0  0  0  0
   58.0559  -10.4942  -24.9567 H   0  0  0  0  0  0  0  0  0  0  0  0
   58.1734  -13.5028  -22.9362 H   0  0  0  0  0  0  0  0  0  0  0  0
  1  2  1  0  0  0  0
  2  3  2  0  0  0  0
  2  9  1  0  0  0  0
  3  4  1  0  0  0  0
  4  5  2  0  0  0  0
  4 18  1  0  0  0  0
  5  6  1  0  0  0  0
  5  8  1  0  0  0  0
  6  7  1  0  0  0  0
  6 19  1  0  0  0  0
  6 20  1  0  0  0  0
  7 10  1  0  0  0  0
  7 14  1  0  0  0  0
  8  9  2  0  0  0  0
  8 21  1  0  0  0  0
  9 22  1  0  0  0  0
 10 11  2  0  0  0  0
 10 12  1  0  0  0  0
 11 15  1  0  0  0  0
 11 23  1  0  0  0  0
 12 13  1  0  0  0  0
 12 24  1  0  0  0  0
 12 29  1  0  0  0  0
 13 14  1  0  0  0  0
 13 25  1  0  0  0  0
 13 26  1  0  0  0  0
 14 27  1  0  0  0  0
 14 28  1  0  0  0  0
 15 16  2  0  0  0  0
 15 17  2  0  0  0  0
M  END
$$$$
