N1Y
 OpenBabel04091916353D

 29 30  0  0  0  0  0  0  0  0999 V2000
   28.8501  -23.9475  -33.6330 Cl  0  0  0  0  0  0  0  0  0  0  0  0
   29.5160  -24.9104  -32.3724 C   0  0  0  0  0  0  0  0  0  0  0  0
   30.1092  -24.2285  -31.3571 N   0  0  0  0  0  0  0  0  0  0  0  0
   30.6562  -24.9631  -30.3459 C   0  0  0  0  0  0  0  0  0  0  0  0
   30.6207  -26.3572  -30.2851 C   0  0  0  0  0  0  0  0  0  0  0  0
   31.2693  -27.1519  -29.1595 C   0  0  0  0  0  0  0  0  0  0  0  0
   30.7615  -26.8527  -27.8088 N   0  0  0  0  0  0  0  0  0  0  0  0
   29.9982  -27.0185  -31.3668 C   0  0  0  0  0  0  0  0  0  0  0  0
   29.4296  -26.2977  -32.4228 C   0  0  0  0  0  0  0  0  0  0  0  0
   29.5828  -27.2842  -27.2272 C   0  0  0  0  0  0  0  0  0  0  0  0
   28.6344  -28.0334  -27.7522 C   0  0  0  0  0  0  0  0  0  0  0  0
   29.5411  -26.7632  -25.9146 N   0  0  0  0  0  0  0  0  0  0  0  0
   30.7792  -25.9596  -25.6289 C   0  0  0  0  0  0  0  0  0  0  0  0
   31.5918  -26.0491  -26.9232 C   0  0  0  0  0  0  0  0  0  0  0  0
   27.3986  -28.4392  -27.0951 N   0  0  0  0  0  0  0  0  0  0  0  0
   27.2030  -28.0599  -25.9244 O   0  0  0  0  0  0  0  0  0  0  0  0
   26.6371  -29.1376  -27.7579 O   0  0  0  0  0  0  0  0  0  0  0  0
   31.1305  -24.3901  -29.5561 H   0  0  0  0  0  0  0  0  0  0  0  0
   32.3510  -26.9649  -29.1693 H   0  0  0  0  0  0  0  0  0  0  0  0
   31.1254  -28.2239  -29.3581 H   0  0  0  0  0  0  0  0  0  0  0  0
   29.9510  -28.1048  -31.3896 H   0  0  0  0  0  0  0  0  0  0  0  0
   28.9378  -26.7971  -33.2588 H   0  0  0  0  0  0  0  0  0  0  0  0
   28.7109  -28.4127  -28.7610 H   0  0  0  0  0  0  0  0  0  0  0  0
   28.7218  -26.1536  -25.8070 H   0  0  0  0  0  0  0  0  0  0  0  0
   31.2791  -26.4088  -24.7621 H   0  0  0  0  0  0  0  0  0  0  0  0
   30.4676  -24.9385  -25.3782 H   0  0  0  0  0  0  0  0  0  0  0  0
   31.7458  -25.0521  -27.3245 H   0  0  0  0  0  0  0  0  0  0  0  0
   32.5525  -26.5246  -26.7133 H   0  0  0  0  0  0  0  0  0  0  0  0
   29.4790  -27.5266  -25.2313 H   0  0  0  0  0  0  0  0  0  0  0  0
  1  2  1  0  0  0  0
  2  3  2  0  0  0  0
  2  9  1  0  0  0  0
  3  4  1  0  0  0  0
  4  5  2  0  0  0  0
  4 18  1  0  0  0  0
  5  6  1  0  0  0  0
  5  8  1  0  0  0  0
  6  7  1  0  0  0  0
  6 19  1  0  0  0  0
  6 20  1  0  0  0  0
  7 10  1  0  0  0  0
  7 14  1  0  0  0  0
  8  9  2  0  0  0  0
  8 21  1  0  0  0  0
  9 22  1  0  0  0  0
 10 11  2  0  0  0  0
 10 12  1  0  0  0  0
 11 15  1  0  0  0  0
 11 23  1  0  0  0  0
 12 13  1  0  0  0  0
 12 24  1  0  0  0  0
 12 29  1  0  0  0  0
 13 14  1  0  0  0  0
 13 25  1  0  0  0  0
 13 26  1  0  0  0  0
 14 27  1  0  0  0  0
 14 28  1  0  0  0  0
 15 16  2  0  0  0  0
 15 17  2  0  0  0  0
M  END
$$$$
