N2Y
 OpenBabel04091916363D

 23 24  0  0  0  0  0  0  0  0999 V2000
  -18.8428   -0.1781   25.3027 N   0  0  0  0  0  0  0  0  0  0  0  0
  -21.0829   -0.0487   24.4590 N   0  3  0  0  0  0  0  0  0  0  0  0
  -20.1127    0.2247   25.4003 C   0  0  0  0  0  0  0  0  0  0  0  0
  -20.5966    0.9365   26.3868 N   0  0  0  0  0  0  0  0  0  0  0  0
  -21.9076    1.1743   26.0755 C   0  0  0  0  0  0  0  0  0  0  0  0
  -22.2298    0.5896   24.8734 C   0  0  0  0  0  0  0  0  0  0  0  0
  -22.1824   -4.6241   22.3017 C   0  0  0  0  0  0  0  0  0  0  0  0
  -22.6811   -6.1950   21.8138 Cl  0  0  0  0  0  0  0  0  0  0  0  0
  -21.8456   -3.8050   21.2917 N   0  0  0  0  0  0  0  0  0  0  0  0
  -21.4574   -2.5585   21.6427 C   0  0  0  0  0  0  0  0  0  0  0  0
  -21.3873   -2.0701   22.9524 C   0  0  0  0  0  0  0  0  0  0  0  0
  -21.7272   -2.9697   23.9662 C   0  0  0  0  0  0  0  0  0  0  0  0
  -22.1398   -4.2671   23.6347 C   0  0  0  0  0  0  0  0  0  0  0  0
  -20.8856   -0.6576   23.1478 C   0  0  0  0  0  0  0  0  0  0  0  0
  -18.2005    0.1137   26.0341 H   0  0  0  0  0  0  0  0  0  0  0  0
  -18.4302   -0.6831   24.5334 H   0  0  0  0  0  0  0  0  0  0  0  0
  -22.5355    1.7718   26.7232 H   0  0  0  0  0  0  0  0  0  0  0  0
  -23.1415    0.5928   24.2938 H   0  0  0  0  0  0  0  0  0  0  0  0
  -21.1825   -1.9336   20.7936 H   0  0  0  0  0  0  0  0  0  0  0  0
  -21.6762   -2.6872   25.0156 H   0  0  0  0  0  0  0  0  0  0  0  0
  -22.4152   -4.9783   24.4059 H   0  0  0  0  0  0  0  0  0  0  0  0
  -19.8156   -0.6317   22.9181 H   0  0  0  0  0  0  0  0  0  0  0  0
  -21.3862    0.0063   22.4320 H   0  0  0  0  0  0  0  0  0  0  0  0
  1  3  1  0  0  0  0
  1 15  1  0  0  0  0
  1 16  1  0  0  0  0
  2  3  2  0  0  0  0
  2  6  1  0  0  0  0
  2 14  1  0  0  0  0
  3  4  1  0  0  0  0
  4  5  1  0  0  0  0
  5  6  2  0  0  0  0
  5 17  1  0  0  0  0
  6 18  1  0  0  0  0
  7  8  1  0  0  0  0
  7  9  2  0  0  0  0
  7 13  1  0  0  0  0
  9 10  1  0  0  0  0
 10 11  2  0  0  0  0
 10 19  1  0  0  0  0
 11 12  1  0  0  0  0
 11 14  1  0  0  0  0
 12 13  2  0  0  0  0
 12 20  1  0  0  0  0
 13 21  1  0  0  0  0
 14 22  1  0  0  0  0
 14 23  1  0  0  0  0
M  CHG  1   2   1
M  END
$$$$
