NBB
 OpenBabel04091911183D

 29 29  0  0  0  0  0  0  0  0999 V2000
   22.7340   -3.0186   -4.4486 O   0  0  0  0  0  0  0  0  0  0  0  0
   21.3461   -2.7479   -4.7624 S   0  0  0  0  0  0  0  0  0  0  0  0
   20.9895   -1.4240   -5.2281 O   0  0  0  0  0  0  0  0  0  0  0  0
   20.3901   -3.1200   -3.4861 N   0  0  0  0  0  0  0  0  0  0  0  0
   19.0974   -2.4968   -3.3478 C   0  0  0  0  0  0  0  0  0  0  0  0
   17.9917   -3.5315   -3.4055 C   0  0  0  0  0  0  0  0  0  0  0  0
   16.6755   -2.9191   -2.9371 C   0  0  0  0  0  0  0  0  0  0  0  0
   16.1841   -3.6197   -1.6843 C   0  0  0  0  0  0  0  0  0  0  0  0
   20.9546   -3.8870   -5.9759 C   0  0  0  0  0  0  0  0  0  0  0  0
   20.9812   -3.4727   -7.2983 C   0  0  0  0  0  0  0  0  0  0  0  0
   20.7204   -4.3873   -8.2946 C   0  0  0  0  0  0  0  0  0  0  0  0
   20.4374   -5.7090   -7.9663 C   0  0  0  0  0  0  0  0  0  0  0  0
   20.4325   -6.1031   -6.6285 C   0  0  0  0  0  0  0  0  0  0  0  0
   20.6995   -5.2014   -5.6215 C   0  0  0  0  0  0  0  0  0  0  0  0
   20.7582   -3.7344   -2.7769 H   0  0  0  0  0  0  0  0  0  0  0  0
   18.9486   -1.7684   -4.1477 H   0  0  0  0  0  0  0  0  0  0  0  0
   19.0669   -1.9861   -2.3794 H   0  0  0  0  0  0  0  0  0  0  0  0
   18.2503   -4.3825   -2.7655 H   0  0  0  0  0  0  0  0  0  0  0  0
   17.8774   -3.8808   -4.4395 H   0  0  0  0  0  0  0  0  0  0  0  0
   15.9208   -3.0265   -3.7253 H   0  0  0  0  0  0  0  0  0  0  0  0
   16.8168   -1.8541   -2.7178 H   0  0  0  0  0  0  0  0  0  0  0  0
   15.2394   -3.1738   -1.3568 H   0  0  0  0  0  0  0  0  0  0  0  0
   16.9305   -3.5148   -0.8860 H   0  0  0  0  0  0  0  0  0  0  0  0
   16.0288   -4.6858   -1.8937 H   0  0  0  0  0  0  0  0  0  0  0  0
   21.2079   -2.4395   -7.5380 H   0  0  0  0  0  0  0  0  0  0  0  0
   20.7348   -4.0725   -9.3336 H   0  0  0  0  0  0  0  0  0  0  0  0
   20.2220   -6.4318   -8.7456 H   0  0  0  0  0  0  0  0  0  0  0  0
   20.2159   -7.1335   -6.3739 H   0  0  0  0  0  0  0  0  0  0  0  0
   20.7102   -5.5062   -4.5829 H   0  0  0  0  0  0  0  0  0  0  0  0
  1  2  2  0  0  0  0
  2  3  2  0  0  0  0
  2  4  1  0  0  0  0
  2  9  1  0  0  0  0
  4  5  1  0  0  0  0
  4 15  1  0  0  0  0
  5  6  1  0  0  0  0
  5 16  1  0  0  0  0
  5 17  1  0  0  0  0
  6  7  1  0  0  0  0
  6 18  1  0  0  0  0
  6 19  1  0  0  0  0
  7  8  1  0  0  0  0
  7 20  1  0  0  0  0
  7 21  1  0  0  0  0
  8 22  1  0  0  0  0
  8 23  1  0  0  0  0
  8 24  1  0  0  0  0
  9 10  2  0  0  0  0
  9 14  1  0  0  0  0
 10 11  1  0  0  0  0
 10 25  1  0  0  0  0
 11 12  2  0  0  0  0
 11 26  1  0  0  0  0
 12 13  1  0  0  0  0
 12 27  1  0  0  0  0
 13 14  2  0  0  0  0
 13 28  1  0  0  0  0
 14 29  1  0  0  0  0
M  END
$$$$
