NBB
 OpenBabel04091911233D

 29 29  0  0  0  0  0  0  0  0999 V2000
   15.8352   16.6894    2.4387 O   0  0  0  0  0  0  0  0  0  0  0  0
   14.7562   17.5703    2.0583 S   0  0  0  0  0  0  0  0  0  0  0  0
   14.7876   18.2956    0.8072 O   0  0  0  0  0  0  0  0  0  0  0  0
   14.5849   18.6786    3.3252 N   0  0  0  0  0  0  0  0  0  0  0  0
   13.3270   19.3845    3.6320 C   0  0  0  0  0  0  0  0  0  0  0  0
   13.3550   19.8803    5.1026 C   0  0  0  0  0  0  0  0  0  0  0  0
   11.9571   20.1189    5.7050 C   0  0  0  0  0  0  0  0  0  0  0  0
   11.8710   21.2575    6.7183 C   0  0  0  0  0  0  0  0  0  0  0  0
   13.2558   16.6416    2.1358 C   0  0  0  0  0  0  0  0  0  0  0  0
   12.3776   16.6493    1.0420 C   0  0  0  0  0  0  0  0  0  0  0  0
   11.1446   16.0072    1.1713 C   0  0  0  0  0  0  0  0  0  0  0  0
   10.8033   15.3862    2.3714 C   0  0  0  0  0  0  0  0  0  0  0  0
   11.6824   15.3909    3.4522 C   0  0  0  0  0  0  0  0  0  0  0  0
   12.9319   16.0115    3.3378 C   0  0  0  0  0  0  0  0  0  0  0  0
   15.4756   19.0942    3.5995 H   0  0  0  0  0  0  0  0  0  0  0  0
   12.4826   18.7019    3.5204 H   0  0  0  0  0  0  0  0  0  0  0  0
   13.1712   20.2277    2.9531 H   0  0  0  0  0  0  0  0  0  0  0  0
   13.9598   20.7942    5.1514 H   0  0  0  0  0  0  0  0  0  0  0  0
   13.8687   19.1368    5.7263 H   0  0  0  0  0  0  0  0  0  0  0  0
   11.6337   19.1998    6.2182 H   0  0  0  0  0  0  0  0  0  0  0  0
   11.2210   20.3131    4.9174 H   0  0  0  0  0  0  0  0  0  0  0  0
   10.8461   21.3326    7.1152 H   0  0  0  0  0  0  0  0  0  0  0  0
   12.1056   22.2255    6.2581 H   0  0  0  0  0  0  0  0  0  0  0  0
   12.5383   21.1103    7.5755 H   0  0  0  0  0  0  0  0  0  0  0  0
   12.6365   17.1593    0.1226 H   0  0  0  0  0  0  0  0  0  0  0  0
   10.4454   16.0042    0.3351 H   0  0  0  0  0  0  0  0  0  0  0  0
    9.8415   14.8912    2.4696 H   0  0  0  0  0  0  0  0  0  0  0  0
   11.4034   14.9309    4.3935 H   0  0  0  0  0  0  0  0  0  0  0  0
   13.6063   16.0428    4.1690 H   0  0  0  0  0  0  0  0  0  0  0  0
  1  2  2  0  0  0  0
  2  3  2  0  0  0  0
  2  4  1  0  0  0  0
  2  9  1  0  0  0  0
  4  5  1  0  0  0  0
  4 15  1  0  0  0  0
  5  6  1  0  0  0  0
  5 16  1  0  0  0  0
  5 17  1  0  0  0  0
  6  7  1  0  0  0  0
  6 18  1  0  0  0  0
  6 19  1  0  0  0  0
  7  8  1  0  0  0  0
  7 20  1  0  0  0  0
  7 21  1  0  0  0  0
  8 22  1  0  0  0  0
  8 23  1  0  0  0  0
  8 24  1  0  0  0  0
  9 10  2  0  0  0  0
  9 14  1  0  0  0  0
 10 11  1  0  0  0  0
 10 25  1  0  0  0  0
 11 12  2  0  0  0  0
 11 26  1  0  0  0  0
 12 13  1  0  0  0  0
 12 27  1  0  0  0  0
 13 14  2  0  0  0  0
 13 28  1  0  0  0  0
 14 29  1  0  0  0  0
M  END
$$$$
