NHK
 OpenBabel04091914093D

 36 36  0  0  0  0  0  0  0  0999 V2000
   -0.1586   -5.7621   -5.4217 O   0  0  0  0  0  0  0  0  0  0  0  0
   -1.3605   -6.2933   -4.7937 S   0  0  0  0  0  0  0  0  0  0  0  0
   -1.4254   -7.6683   -4.3622 O   0  0  0  0  0  0  0  0  0  0  0  0
   -1.7411   -5.2950   -3.5109 N   0  0  0  0  0  0  0  0  0  0  0  0
   -1.2853   -3.8940   -3.5106 C   0  0  0  0  0  0  0  0  0  0  0  0
   -2.2446   -2.9156   -4.1558 C   0  0  0  0  0  0  0  0  0  0  0  0
   -3.4230   -2.8371   -3.8069 O   0  0  0  0  0  0  0  0  0  0  0  0
   -1.6575   -2.1329   -5.1231 N   0  0  0  0  0  0  0  0  0  0  0  0
   -2.5046   -1.2307   -5.7947 O   0  0  0  0  0  0  0  0  0  0  0  0
   -2.8441   -5.6732   -2.5963 C   0  0  0  0  0  0  0  0  0  0  0  0
   -2.5136   -5.2610   -1.1587 C   0  0  0  0  0  0  0  0  0  0  0  0
   -1.2954   -5.8884   -0.7619 O   0  0  0  0  0  0  0  0  0  0  0  0
   -2.6913   -6.0512   -5.9465 C   0  0  0  0  0  0  0  0  0  0  0  0
   -2.5317   -5.1511   -6.9965 C   0  0  0  0  0  0  0  0  0  0  0  0
   -3.5148   -5.0736   -7.9814 C   0  0  0  0  0  0  0  0  0  0  0  0
   -4.6481   -5.8955   -7.9333 C   0  0  0  0  0  0  0  0  0  0  0  0
   -4.8012   -6.7925   -6.8749 C   0  0  0  0  0  0  0  0  0  0  0  0
   -3.8179   -6.8778   -5.8819 C   0  0  0  0  0  0  0  0  0  0  0  0
   -5.5188   -5.7115   -8.9700 O   0  0  0  0  0  0  0  0  0  0  0  0
   -6.5566   -6.6668   -9.1452 C   0  0  0  0  0  0  0  0  0  0  0  0
   -0.2962   -3.8262   -3.9761 H   0  0  0  0  0  0  0  0  0  0  0  0
   -1.0926   -3.5431   -2.4920 H   0  0  0  0  0  0  0  0  0  0  0  0
   -0.6950   -2.2333   -5.4329 H   0  0  0  0  0  0  0  0  0  0  0  0
   -1.9422   -0.8360   -6.4830 H   0  0  0  0  0  0  0  0  0  0  0  0
   -2.9500   -6.7635   -2.6024 H   0  0  0  0  0  0  0  0  0  0  0  0
   -3.8018   -5.2509   -2.9179 H   0  0  0  0  0  0  0  0  0  0  0  0
   -3.3084   -5.5663   -0.4747 H   0  0  0  0  0  0  0  0  0  0  0  0
   -2.3950   -4.1779   -1.0691 H   0  0  0  0  0  0  0  0  0  0  0  0
   -1.0736   -5.5762    0.1289 H   0  0  0  0  0  0  0  0  0  0  0  0
   -1.6434   -4.5320   -7.0746 H   0  0  0  0  0  0  0  0  0  0  0  0
   -3.3871   -4.3804   -8.8104 H   0  0  0  0  0  0  0  0  0  0  0  0
   -5.6665   -7.4431   -6.7966 H   0  0  0  0  0  0  0  0  0  0  0  0
   -3.9241   -7.6033   -5.0779 H   0  0  0  0  0  0  0  0  0  0  0  0
   -7.1452   -6.3482  -10.0117 H   0  0  0  0  0  0  0  0  0  0  0  0
   -7.2331   -6.7001   -8.2856 H   0  0  0  0  0  0  0  0  0  0  0  0
   -6.1489   -7.6586   -9.3671 H   0  0  0  0  0  0  0  0  0  0  0  0
  1  2  2  0  0  0  0
  2  3  2  0  0  0  0
  2  4  1  0  0  0  0
  2 13  1  0  0  0  0
  4  5  1  0  0  0  0
  4 10  1  0  0  0  0
  5  6  1  0  0  0  0
  5 21  1  0  0  0  0
  5 22  1  0  0  0  0
  6  7  2  0  0  0  0
  6  8  1  0  0  0  0
  8  9  1  0  0  0  0
  8 23  1  0  0  0  0
  9 24  1  0  0  0  0
 10 11  1  0  0  0  0
 10 25  1  0  0  0  0
 10 26  1  0  0  0  0
 11 12  1  0  0  0  0
 11 27  1  0  0  0  0
 11 28  1  0  0  0  0
 12 29  1  0  0  0  0
 13 14  2  0  0  0  0
 13 18  1  0  0  0  0
 14 15  1  0  0  0  0
 14 30  1  0  0  0  0
 15 16  2  0  0  0  0
 15 31  1  0  0  0  0
 16 17  1  0  0  0  0
 16 19  1  0  0  0  0
 17 18  2  0  0  0  0
 17 32  1  0  0  0  0
 18 33  1  0  0  0  0
 19 20  1  0  0  0  0
 20 34  1  0  0  0  0
 20 35  1  0  0  0  0
 20 36  1  0  0  0  0
M  END
$$$$
