NON
 OpenBabel04091911473D

 44 45  0  0  0  0  0  0  0  0999 V2000
   12.1237   -4.6348   55.4920 N   0  0  0  0  0  0  0  0  0  0  0  0
   12.6982   -4.4621   54.2847 C   0  0  0  0  0  0  0  0  0  0  0  0
   13.5865   -3.2698   54.0799 C   0  0  0  0  0  0  0  0  0  0  0  0
   12.5612   -5.3166   53.2546 N   0  0  0  0  0  0  0  0  0  0  0  0
   11.7796   -6.3900   53.4298 C   0  0  0  0  0  0  0  0  0  0  0  0
   11.7478   -7.2790   52.3814 N   0  0  0  0  0  0  0  0  0  0  0  0
   11.0743   -6.6190   54.5930 C   0  0  0  0  0  0  0  0  0  0  0  0
   11.3229   -5.7017   55.6189 C   0  0  0  0  0  0  0  0  0  0  0  0
   10.1447   -7.7589   54.7994 C   0  0  0  0  0  0  0  0  0  0  0  0
    8.8255   -7.7414   54.1186 N   0  0  0  0  0  0  0  0  0  0  0  0
    8.7453   -8.0865   52.6704 C   0  0  0  0  0  0  0  0  0  0  0  0
    7.2063   -7.5001   52.0777 S   0  0  0  0  0  0  0  0  0  0  0  0
    6.9192   -6.5670   53.5202 C   0  0  0  0  0  0  0  0  0  0  0  0
    7.8609   -6.7011   54.4564 C   0  0  0  0  0  0  0  0  0  0  0  0
    7.7784   -6.1492   55.8476 C   0  0  0  0  0  0  0  0  0  0  0  0
    5.5897   -5.8544   53.5877 C   0  0  0  0  0  0  0  0  0  0  0  0
    5.4449   -4.7568   52.5272 C   0  0  0  0  0  0  0  0  0  0  0  0
    4.0874   -4.3888   52.4466 O   0  0  0  0  0  0  0  0  0  0  0  0
    3.5752   -3.3793   51.2572 P   0  0  2  0  0  0  0  0  0  0  0  0
    4.7361   -2.4076   51.0271 O   0  0  0  0  0  0  0  0  0  0  0  0
    2.2885   -2.7577   51.7624 O   0  0  0  0  0  0  0  0  0  0  0  0
    3.4473   -4.3351   49.9804 O   0  0  0  0  0  0  0  0  0  0  0  0
    2.4242   -5.4520   49.4221 P   0  0  0  0  0  0  0  0  0  0  0  0
    1.1574   -5.4058   50.2570 O   0  0  0  0  0  0  0  0  0  0  0  0
    2.2054   -5.0796   47.9518 O   0  0  0  0  0  0  0  0  0  0  0  0
    3.1830   -6.7807   49.5640 O   0  0  0  0  0  0  0  0  0  0  0  0
   13.6318   -2.6587   54.9861 H   0  0  0  0  0  0  0  0  0  0  0  0
   13.2177   -2.6425   53.2603 H   0  0  0  0  0  0  0  0  0  0  0  0
   14.6017   -3.5932   53.8318 H   0  0  0  0  0  0  0  0  0  0  0  0
   11.2759   -8.1622   52.3790 H   0  0  0  0  0  0  0  0  0  0  0  0
   12.1982   -6.9847   51.5221 H   0  0  0  0  0  0  0  0  0  0  0  0
   10.8430   -5.8121   56.5832 H   0  0  0  0  0  0  0  0  0  0  0  0
    9.9415   -7.9026   55.8693 H   0  0  0  0  0  0  0  0  0  0  0  0
   10.6645   -8.6702   54.5047 H   0  0  0  0  0  0  0  0  0  0  0  0
    8.7880   -9.1805   52.6345 H   0  0  0  0  0  0  0  0  0  0  0  0
    9.5276   -7.6313   52.0739 H   0  0  0  0  0  0  0  0  0  0  0  0
    6.8683   -5.5927   56.0173 H   0  0  0  0  0  0  0  0  0  0  0  0
    8.6131   -5.4759   56.0541 H   0  0  0  0  0  0  0  0  0  0  0  0
    7.8035   -6.9604   56.5951 H   0  0  0  0  0  0  0  0  0  0  0  0
    5.4217   -5.4294   54.5855 H   0  0  0  0  0  0  0  0  0  0  0  0
    4.7745   -6.5912   53.4816 H   0  0  0  0  0  0  0  0  0  0  0  0
    5.8133   -5.0939   51.5544 H   0  0  0  0  0  0  0  0  0  0  0  0
    6.0507   -3.9019   52.8504 H   0  0  0  0  0  0  0  0  0  0  0  0
    8.3577   -8.5723   54.5267 H   0  0  0  0  0  0  0  0  0  0  0  0
  1  2  2  0  0  0  0
  1  8  1  0  0  0  0
  2  3  1  0  0  0  0
  2  4  1  0  0  0  0
  3 27  1  0  0  0  0
  3 28  1  0  0  0  0
  3 29  1  0  0  0  0
  4  5  2  0  0  0  0
  5  6  1  0  0  0  0
  5  7  1  0  0  0  0
  6 30  1  0  0  0  0
  6 31  1  0  0  0  0
  7  8  2  0  0  0  0
  7  9  1  0  0  0  0
  8 32  1  0  0  0  0
  9 10  1  0  0  0  0
  9 33  1  0  0  0  0
  9 34  1  0  0  0  0
 10 11  1  0  0  0  0
 10 14  1  0  0  0  0
 10 44  1  0  0  0  0
 11 12  1  0  0  0  0
 11 35  1  0  0  0  0
 11 36  1  0  0  0  0
 12 13  1  0  0  0  0
 13 14  2  0  0  0  0
 13 16  1  0  0  0  0
 14 15  1  0  0  0  0
 15 37  1  0  0  0  0
 15 38  1  0  0  0  0
 15 39  1  0  0  0  0
 16 17  1  0  0  0  0
 16 40  1  0  0  0  0
 16 41  1  0  0  0  0
 17 18  1  0  0  0  0
 17 42  1  0  0  0  0
 17 43  1  0  0  0  0
 19 18  1  1  0  0  0
 19 20  2  0  0  0  0
 19 21  1  0  0  0  0
 19 22  1  0  0  0  0
 22 23  1  0  0  0  0
 23 24  2  0  0  0  0
 23 25  1  0  0  0  0
 23 26  1  0  0  0  0
M  END
$$$$
