NON
 OpenBabel04091913513D

  6  5  0  0  0  0  0  0  0  0999 V2000
   10.3991    2.8891   46.4848 C   0  0  0  0  0  0  0  0  0  0  0  0
    9.5116    1.9717   45.5918 C   0  0  0  0  0  0  0  0  0  0  0  0
   10.6481    4.0663   46.0431 O   0  0  0  0  0  0  0  0  0  0  0  0
    9.3896    0.7489   45.9597 O   0  0  0  0  0  0  0  0  0  0  0  0
   10.8095    2.3890   47.5930 O   0  0  0  0  0  0  0  0  0  0  0  0
    8.9740    2.5138   44.5613 O   0  0  0  0  0  0  0  0  0  0  0  0
  1  2  1  0  0  0  0
  1  3  2  0  0  0  0
  1  5  1  0  0  0  0
  2  4  2  0  0  0  0
  2  6  1  0  0  0  0
M  END
$$$$
