NON
 OpenBabel04091916423D

 22 22  0  0  1  0  0  0  0  0999 V2000
   20.1551   11.5770  -19.1710 C   0  0  0  0  0  0  0  0  0  0  0  0
   20.4804   11.3324  -17.7021 C   0  0  2  0  0  0  0  0  0  0  0  0
   21.8333   10.6171  -17.6144 C   0  0  1  0  0  0  0  0  0  0  0  0
   22.9152   11.4266  -18.3456 C   0  0  1  0  0  0  0  0  0  0  0  0
   22.4493   11.7345  -19.7861 C   0  0  2  0  0  0  0  0  0  0  0  0
   23.4287   12.6426  -20.5164 C   0  0  0  0  0  0  0  0  0  0  0  0
   19.4644   10.5358  -17.0874 O   0  0  0  0  0  0  0  0  0  0  0  0
   22.2006   10.4077  -16.2377 O   0  0  0  0  0  0  0  0  0  0  0  0
   23.1545   12.6378  -17.6118 O   0  0  0  0  0  0  0  0  0  0  0  0
   21.1604   12.3695  -19.8011 O   0  0  0  0  0  0  0  0  0  0  0  0
   19.1920   12.0932  -19.2666 H   0  0  0  0  0  0  0  0  0  0  0  0
   20.0432   10.6263  -19.7141 H   0  0  0  0  0  0  0  0  0  0  0  0
   20.5212   12.2832  -17.1587 H   0  0  0  0  0  0  0  0  0  0  0  0
   21.7500    9.6235  -18.0637 H   0  0  0  0  0  0  0  0  0  0  0  0
   23.8635   10.8745  -18.3665 H   0  0  0  0  0  0  0  0  0  0  0  0
   22.3633   10.7960  -20.3515 H   0  0  0  0  0  0  0  0  0  0  0  0
   23.0592   12.8781  -21.5222 H   0  0  0  0  0  0  0  0  0  0  0  0
   24.4100   12.1679  -20.6093 H   0  0  0  0  0  0  0  0  0  0  0  0
   23.5508   13.6018  -20.0008 H   0  0  0  0  0  0  0  0  0  0  0  0
   19.7888   10.3202  -16.1938 H   0  0  0  0  0  0  0  0  0  0  0  0
   22.1894   11.2793  -15.8082 H   0  0  0  0  0  0  0  0  0  0  0  0
   23.7544   12.4145  -16.8784 H   0  0  0  0  0  0  0  0  0  0  0  0
  1  2  1  0  0  0  0
  1 10  1  0  0  0  0
  1 11  1  0  0  0  0
  1 12  1  0  0  0  0
  2  3  1  0  0  0  0
  2  7  1  0  0  0  0
  2 13  1  1  0  0  0
  3  4  1  0  0  0  0
  3  8  1  0  0  0  0
  3 14  1  6  0  0  0
  4  5  1  0  0  0  0
  4  9  1  0  0  0  0
  4 15  1  6  0  0  0
  5  6  1  0  0  0  0
  5 10  1  0  0  0  0
  5 16  1  6  0  0  0
  6 17  1  0  0  0  0
  6 18  1  0  0  0  0
  6 19  1  0  0  0  0
  7 20  1  0  0  0  0
  8 21  1  0  0  0  0
  9 22  1  0  0  0  0
M  END
$$$$
