NP6
 OpenBabel04091912473D

 50 51  0  0  1  0  0  0  0  0999 V2000
  -17.4463  -10.8177    1.4761 O   0  0  0  0  0  0  0  0  0  0  0  0
  -16.4152  -11.4662    1.5293 C   0  0  0  0  0  0  0  0  0  0  0  0
  -15.9140  -12.2870    0.5306 N   0  0  0  0  0  0  0  0  0  0  0  0
  -16.4489  -12.4954   -0.7587 C   0  0  0  0  0  0  0  0  0  0  0  0
  -15.8620  -13.4654   -1.5802 C   0  0  0  0  0  0  0  0  0  0  0  0
  -16.3571  -13.7059   -2.8647 C   0  0  0  0  0  0  0  0  0  0  0  0
  -17.4421  -12.9770   -3.3571 C   0  0  0  0  0  0  0  0  0  0  0  0
  -18.0301  -12.0063   -2.5552 C   0  0  0  0  0  0  0  0  0  0  0  0
  -17.5305  -11.7620   -1.2657 C   0  0  0  0  0  0  0  0  0  0  0  0
  -15.5589  -11.4857    2.6165 O   0  0  0  0  0  0  0  0  0  0  0  0
  -16.0327  -10.5824    3.5975 N   0  0  0  0  0  0  0  0  0  0  0  0
  -15.2606  -10.5008    4.6385 C   0  0  0  0  0  0  0  0  0  0  0  0
  -14.1386  -11.2487    4.7541 O   0  0  0  0  0  0  0  0  0  0  0  0
  -13.2076  -11.1230    5.8640 C   0  0  2  0  0  0  0  0  0  0  0  0
  -12.4705  -12.4574    6.0991 C   0  0  0  0  0  0  0  0  0  0  0  0
  -13.3558  -13.5544    6.2893 O   0  0  0  0  0  0  0  0  0  0  0  0
  -13.8703  -10.6012    7.1383 C   0  0  1  0  0  0  0  0  0  0  0  0
  -12.8855  -10.3757    8.1475 O   0  0  0  0  0  0  0  0  0  0  0  0
  -14.5541   -9.2869    6.7686 C   0  0  2  0  0  0  0  0  0  0  0  0
  -15.0709   -8.6407    7.9420 O   0  0  0  0  0  0  0  0  0  0  0  0
  -15.6828   -9.5882    5.7954 C   0  0  1  0  0  0  0  0  0  0  0  0
  -16.2462   -8.3085    5.3373 N   0  0  0  0  0  0  0  0  0  0  0  0
  -17.5259   -7.9437    5.6769 C   0  0  0  0  0  0  0  0  0  0  0  0
  -18.2284   -8.6083    6.4319 O   0  0  0  0  0  0  0  0  0  0  0  0
  -17.9839   -6.6211    5.1005 C   0  0  0  0  0  0  0  0  0  0  0  0
  -19.4313   -6.7501    4.6385 C   0  0  0  0  0  0  0  0  0  0  0  0
  -19.5214   -7.6693    3.4267 C   0  0  0  0  0  0  0  0  0  0  0  0
  -15.0789  -12.7910    0.7805 H   0  0  0  0  0  0  0  0  0  0  0  0
  -15.0172  -14.0607   -1.2238 H   0  0  0  0  0  0  0  0  0  0  0  0
  -15.9107  -14.4791   -3.4878 H   0  0  0  0  0  0  0  0  0  0  0  0
  -17.8305  -13.1678   -4.3438 H   0  0  0  0  0  0  0  0  0  0  0  0
  -18.8672  -11.4193   -2.9270 H   0  0  0  0  0  0  0  0  0  0  0  0
  -18.0152  -10.9874   -0.6901 H   0  0  0  0  0  0  0  0  0  0  0  0
  -12.4311  -10.4106    5.5528 H   0  0  0  0  0  0  0  0  0  0  0  0
  -11.8042  -12.4047    6.9681 H   0  0  0  0  0  0  0  0  0  0  0  0
  -11.8422  -12.6954    5.2350 H   0  0  0  0  0  0  0  0  0  0  0  0
  -13.8577  -13.4262    7.1100 H   0  0  0  0  0  0  0  0  0  0  0  0
  -14.6194  -11.3035    7.5265 H   0  0  0  0  0  0  0  0  0  0  0  0
  -12.6006  -11.2326    8.5074 H   0  0  0  0  0  0  0  0  0  0  0  0
  -13.8326   -8.5900    6.3235 H   0  0  0  0  0  0  0  0  0  0  0  0
  -15.5645   -7.8536    7.6400 H   0  0  0  0  0  0  0  0  0  0  0  0
  -16.4711  -10.1374    6.3287 H   0  0  0  0  0  0  0  0  0  0  0  0
  -15.7337   -7.7625    4.6559 H   0  0  0  0  0  0  0  0  0  0  0  0
  -17.3415   -6.2994    4.2731 H   0  0  0  0  0  0  0  0  0  0  0  0
  -17.9039   -5.8680    5.8933 H   0  0  0  0  0  0  0  0  0  0  0  0
  -19.8314   -5.7633    4.3831 H   0  0  0  0  0  0  0  0  0  0  0  0
  -20.0564   -7.1512    5.4460 H   0  0  0  0  0  0  0  0  0  0  0  0
  -20.5588   -7.7793    3.1067 H   0  0  0  0  0  0  0  0  0  0  0  0
  -19.1334   -8.6685    3.6577 H   0  0  0  0  0  0  0  0  0  0  0  0
  -18.9358   -7.2656    2.5961 H   0  0  0  0  0  0  0  0  0  0  0  0
  1  2  2  0  0  0  0
  2  3  1  0  0  0  0
  2 10  1  0  0  0  0
  3  4  1  0  0  0  0
  3 28  1  0  0  0  0
  4  5  2  0  0  0  0
  4  9  1  0  0  0  0
  5  6  1  0  0  0  0
  5 29  1  0  0  0  0
  6  7  2  0  0  0  0
  6 30  1  0  0  0  0
  7  8  1  0  0  0  0
  7 31  1  0  0  0  0
  8  9  2  0  0  0  0
  8 32  1  0  0  0  0
  9 33  1  0  0  0  0
 10 11  1  0  0  0  0
 11 12  2  0  0  0  0
 12 13  1  0  0  0  0
 12 21  1  0  0  0  0
 13 14  1  0  0  0  0
 14 15  1  0  0  0  0
 14 17  1  0  0  0  0
 14 34  1  6  0  0  0
 15 16  1  0  0  0  0
 15 35  1  0  0  0  0
 15 36  1  0  0  0  0
 16 37  1  0  0  0  0
 17 18  1  0  0  0  0
 17 19  1  0  0  0  0
 17 38  1  1  0  0  0
 18 39  1  0  0  0  0
 19 20  1  0  0  0  0
 19 21  1  0  0  0  0
 19 40  1  6  0  0  0
 20 41  1  0  0  0  0
 21 22  1  0  0  0  0
 21 42  1  1  0  0  0
 22 23  1  0  0  0  0
 22 43  1  0  0  0  0
 23 24  2  0  0  0  0
 23 25  1  0  0  0  0
 25 26  1  0  0  0  0
 25 44  1  0  0  0  0
 25 45  1  0  0  0  0
 26 27  1  0  0  0  0
 26 46  1  0  0  0  0
 26 47  1  0  0  0  0
 27 48  1  0  0  0  0
 27 49  1  0  0  0  0
 27 50  1  0  0  0  0
M  END
$$$$
