NSX
 OpenBabel04091912523D

152157  0  0  1  0  0  0  0  0999 V2000
   30.5237   -3.5994  -10.2199 C   0  0  0  0  0  0  0  0  0  0  0  0
   29.4653   -3.9148   -9.2116 C   0  0  0  0  0  0  0  0  0  0  0  0
   28.8276   -3.0740   -8.5913 O   0  0  0  0  0  0  0  0  0  0  0  0
   28.7405   -3.8441  -14.3152 C   0  0  1  0  0  0  0  0  0  0  0  0
   29.2357   -2.5751  -13.6284 C   0  0  0  0  0  0  0  0  0  0  0  0
   29.8167   -2.5498  -12.4226 C   0  0  0  0  0  0  0  0  0  0  0  0
   30.0391   -3.8110  -11.6638 C   0  0  2  0  0  0  0  0  0  0  0  0
   29.0717   -4.9695  -11.9783 C   0  0  0  0  0  0  0  0  0  0  0  0
   28.4043   -4.9915  -13.3522 C   0  0  0  0  0  0  0  0  0  0  0  0
   26.8176   -3.3704  -18.3586 C   0  0  0  0  0  0  0  0  0  0  0  0
   27.0377   -4.8206  -16.1320 C   0  0  0  0  0  0  0  0  0  0  0  0
   27.7122   -3.5859  -15.4892 C   0  0  2  0  0  0  0  0  0  0  0  0
   26.5052   -4.6224  -17.5536 C   0  0  0  0  0  0  0  0  0  0  0  0
   28.1789   -2.5232  -16.4761 C   0  0  0  0  0  0  0  0  0  0  0  0
   27.7087   -2.3805  -17.7180 C   0  0  0  0  0  0  0  0  0  0  0  0
   29.2800   -5.2574   -9.1205 N   0  0  0  0  0  0  0  0  0  0  0  0
   28.2932   -5.9745   -8.3773 C   0  0  2  0  0  0  0  0  0  0  0  0
   29.1516   -7.1749   -7.8772 C   0  0  0  0  0  0  0  0  0  0  0  0
   30.0601   -7.6228   -8.4929 O   0  0  0  0  0  0  0  0  0  0  0  0
   27.1594   -6.5412   -9.2741 C   0  0  0  0  0  0  0  0  0  0  0  0
   23.4395   -7.6202  -14.8891 C   0  0  0  0  0  0  0  0  0  0  0  0
   23.5640   -7.0678  -16.2916 C   0  0  0  0  0  0  0  0  0  0  0  0
   23.2539   -5.7195  -16.5347 C   0  0  0  0  0  0  0  0  0  0  0  0
   23.8711   -7.9036  -17.4029 C   0  0  0  0  0  0  0  0  0  0  0  0
   23.2320   -5.2248  -17.8590 C   0  0  0  0  0  0  0  0  0  0  0  0
   23.8664   -7.3765  -18.7230 C   0  0  0  0  0  0  0  0  0  0  0  0
   23.5341   -6.0310  -18.9801 C   0  0  0  0  0  0  0  0  0  0  0  0
   28.6686   -7.7272   -6.7246 N   0  0  0  0  0  0  0  0  0  0  0  0
   29.4168   -8.7822   -6.0606 C   0  0  2  0  0  0  0  0  0  0  0  0
   29.3651  -10.1316   -6.8316 C   0  0  0  0  0  0  0  0  0  0  0  0
   28.0465  -10.5407   -7.5884 C   0  0  0  0  0  0  0  0  0  0  0  0
   27.7422  -12.0664   -7.4998 C   0  0  0  0  0  0  0  0  0  0  0  0
   26.4645  -12.5046   -8.1788 N   0  0  0  0  0  0  0  0  0  0  0  0
   25.2803  -12.8062   -7.5682 C   0  0  0  0  0  0  0  0  0  0  0  0
   25.1761  -13.1177   -6.2768 N   0  0  0  0  0  0  0  0  0  0  0  0
   24.1188  -12.8037   -8.2549 N   0  0  0  0  0  0  0  0  0  0  0  0
   28.8896   -9.0301   -4.6345 C   0  0  0  0  0  0  0  0  0  0  0  0
   29.5719   -9.5347   -3.7504 O   0  0  0  0  0  0  0  0  0  0  0  0
   27.5276   -8.8327   -4.5257 N   0  0  0  0  0  0  0  0  0  0  0  0
   26.7924   -9.3603   -3.3648 C   0  0  2  0  0  0  0  0  0  0  0  0
   26.5591  -10.8560   -3.6064 C   0  0  0  0  0  0  0  0  0  0  0  0
   26.1776  -11.3013   -4.6687 O   0  0  0  0  0  0  0  0  0  0  0  0
   25.4204   -8.6630   -3.2556 C   0  0  0  0  0  0  0  0  0  0  0  0
   24.5165   -9.0073   -2.0389 C   0  0  2  0  0  0  0  0  0  0  0  0
   25.0788   -8.5765   -0.6788 C   0  0  0  0  0  0  0  0  0  0  0  0
   23.6899  -10.2647   -2.0461 C   0  0  0  0  0  0  0  0  0  0  0  0
   24.3640   -9.1138    0.5618 C   0  0  0  0  0  0  0  0  0  0  0  0
   23.0580  -10.7471   -0.9788 C   0  0  0  0  0  0  0  0  0  0  0  0
   23.3479  -10.2059    0.3831 C   0  0  0  0  0  0  0  0  0  0  0  0
   22.7318  -10.7232    1.3528 O   0  0  0  0  0  0  0  0  0  0  0  0
   29.0938  -13.6183   -2.0875 C   0  0  0  0  0  0  0  0  0  0  0  0
   29.0259  -14.2495   -0.6936 C   0  0  0  0  0  0  0  0  0  0  0  0
   30.3271  -14.2868    0.1026 C   0  0  0  0  0  0  0  0  0  0  0  0
   31.6392  -13.9781   -0.5919 C   0  0  0  0  0  0  0  0  0  0  0  0
   31.6783  -13.6226   -2.0601 C   0  0  0  0  0  0  0  0  0  0  0  0
   30.4007  -13.5815   -2.8562 C   0  0  0  0  0  0  0  0  0  0  0  0
   27.9179  -13.8023   -3.0697 C   0  0  0  0  0  0  0  0  0  0  0  0
   26.6310  -13.1364   -2.5892 C   0  0  0  0  0  0  0  0  0  0  0  0
   26.7532  -11.6953   -2.4978 N   0  0  0  0  0  0  0  0  0  0  0  0
   23.8048   -5.3241  -20.3475 C   0  0  2  0  0  0  0  0  0  0  0  0
   23.3112   -3.8447  -20.5183 C   0  0  0  0  0  0  0  0  0  0  0  0
   23.8128   -6.1030  -21.6528 C   0  0  0  0  0  0  0  0  0  0  0  0
   23.3361   -3.2912  -21.9222 C   0  0  0  0  0  0  0  0  0  0  0  0
   23.7980   -5.4835  -22.8525 C   0  0  0  0  0  0  0  0  0  0  0  0
   23.5811   -4.0605  -22.9920 C   0  0  0  0  0  0  0  0  0  0  0  0
   24.5160   -7.2838  -13.9136 C   0  0  0  0  0  0  0  0  0  0  0  0
   25.7573   -5.9546   -9.3107 C   0  0  0  0  0  0  0  0  0  0  0  0
   24.9140   -5.9456  -10.3772 C   0  0  0  0  0  0  0  0  0  0  0  0
   25.2478   -6.4460  -11.7529 C   0  0  0  0  0  0  0  0  0  0  0  0
   24.1573   -6.6584  -12.6888 N   0  0  0  0  0  0  0  0  0  0  0  0
   25.6771   -7.6370  -14.0790 O   0  0  0  0  0  0  0  0  0  0  0  0
   31.3681   -4.2891  -10.0489 H   0  0  0  0  0  0  0  0  0  0  0  0
   30.9294   -2.6002  -10.0238 H   0  0  0  0  0  0  0  0  0  0  0  0
   29.6392   -4.2267  -14.7969 H   0  0  0  0  0  0  0  0  0  0  0  0
   29.3499   -1.6736  -14.2220 H   0  0  0  0  0  0  0  0  0  0  0  0
   30.3679   -1.6578  -12.1153 H   0  0  0  0  0  0  0  0  0  0  0  0
   30.9536   -4.1771  -12.1233 H   0  0  0  0  0  0  0  0  0  0  0  0
   28.2612   -5.0552  -11.2578 H   0  0  0  0  0  0  0  0  0  0  0  0
   29.6651   -5.8915  -11.8836 H   0  0  0  0  0  0  0  0  0  0  0  0
   28.7350   -5.9193  -13.8341 H   0  0  0  0  0  0  0  0  0  0  0  0
   27.3299   -5.1251  -13.2275 H   0  0  0  0  0  0  0  0  0  0  0  0
   25.8785   -2.8736  -18.6340 H   0  0  0  0  0  0  0  0  0  0  0  0
   27.2759   -3.6827  -19.3025 H   0  0  0  0  0  0  0  0  0  0  0  0
   26.1608   -5.0458  -15.4998 H   0  0  0  0  0  0  0  0  0  0  0  0
   27.6095   -5.7590  -16.0991 H   0  0  0  0  0  0  0  0  0  0  0  0
   26.8580   -3.0949  -15.0159 H   0  0  0  0  0  0  0  0  0  0  0  0
   26.7535   -5.5012  -18.1598 H   0  0  0  0  0  0  0  0  0  0  0  0
   25.4297   -4.6288  -17.4685 H   0  0  0  0  0  0  0  0  0  0  0  0
   28.8202   -1.7226  -16.1237 H   0  0  0  0  0  0  0  0  0  0  0  0
   27.9517   -1.4854  -18.2938 H   0  0  0  0  0  0  0  0  0  0  0  0
   29.8708   -5.8680   -9.6906 H   0  0  0  0  0  0  0  0  0  0  0  0
   27.9118   -5.3356   -7.5393 H   0  0  0  0  0  0  0  0  0  0  0  0
   27.0436   -7.6004   -9.0197 H   0  0  0  0  0  0  0  0  0  0  0  0
   27.5408   -6.5430  -10.2942 H   0  0  0  0  0  0  0  0  0  0  0  0
   23.5017   -8.7148  -14.9603 H   0  0  0  0  0  0  0  0  0  0  0  0
   22.4440   -7.3748  -14.5058 H   0  0  0  0  0  0  0  0  0  0  0  0
   23.0618   -5.0540  -15.7095 H   0  0  0  0  0  0  0  0  0  0  0  0
   24.1075   -8.9435  -17.2318 H   0  0  0  0  0  0  0  0  0  0  0  0
   23.0921   -4.1525  -17.9557 H   0  0  0  0  0  0  0  0  0  0  0  0
   24.1539   -8.0613  -19.5151 H   0  0  0  0  0  0  0  0  0  0  0  0
   28.0141   -7.1583   -6.1589 H   0  0  0  0  0  0  0  0  0  0  0  0
   30.4596   -8.4265   -5.9225 H   0  0  0  0  0  0  0  0  0  0  0  0
   29.6172  -10.9235   -6.1265 H   0  0  0  0  0  0  0  0  0  0  0  0
   30.1785  -10.1024   -7.5720 H   0  0  0  0  0  0  0  0  0  0  0  0
   28.1590  -10.2632   -8.6477 H   0  0  0  0  0  0  0  0  0  0  0  0
   27.1803   -9.9876   -7.2122 H   0  0  0  0  0  0  0  0  0  0  0  0
   27.6821  -12.3662   -6.4550 H   0  0  0  0  0  0  0  0  0  0  0  0
   28.5703  -12.6286   -7.9528 H   0  0  0  0  0  0  0  0  0  0  0  0
   26.5464  -12.8011   -9.1498 H   0  0  0  0  0  0  0  0  0  0  0  0
   24.2790  -13.2296   -5.8232 H   0  0  0  0  0  0  0  0  0  0  0  0
   24.0489  -12.5601   -9.2327 H   0  0  0  0  0  0  0  0  0  0  0  0
   23.2382  -12.9228   -7.7616 H   0  0  0  0  0  0  0  0  0  0  0  0
   27.0183   -8.6419   -5.3757 H   0  0  0  0  0  0  0  0  0  0  0  0
   27.3987   -9.1710   -2.4840 H   0  0  0  0  0  0  0  0  0  0  0  0
   24.8498   -8.8274   -4.1814 H   0  0  0  0  0  0  0  0  0  0  0  0
   25.5952   -7.5746   -3.2447 H   0  0  0  0  0  0  0  0  0  0  0  0
   23.7266   -8.2707   -2.1997 H   0  0  0  0  0  0  0  0  0  0  0  0
   24.9531   -7.4881   -0.6534 H   0  0  0  0  0  0  0  0  0  0  0  0
   26.1594   -8.7261   -0.5736 H   0  0  0  0  0  0  0  0  0  0  0  0
   23.3750  -10.6656   -3.0153 H   0  0  0  0  0  0  0  0  0  0  0  0
   23.8826   -8.2831    1.0766 H   0  0  0  0  0  0  0  0  0  0  0  0
   25.1427   -9.5034    1.2550 H   0  0  0  0  0  0  0  0  0  0  0  0
   22.3048  -11.5321   -0.9985 H   0  0  0  0  0  0  0  0  0  0  0  0
   29.0014  -12.5721   -1.8115 H   0  0  0  0  0  0  0  0  0  0  0  0
   28.5395  -15.2306   -0.6408 H   0  0  0  0  0  0  0  0  0  0  0  0
   28.3519  -13.5916   -0.1171 H   0  0  0  0  0  0  0  0  0  0  0  0
   30.4224  -15.2778    0.5667 H   0  0  0  0  0  0  0  0  0  0  0  0
   30.2404  -13.6027    0.9607 H   0  0  0  0  0  0  0  0  0  0  0  0
   32.3033  -14.8394   -0.4476 H   0  0  0  0  0  0  0  0  0  0  0  0
   32.1252  -13.1599   -0.0434 H   0  0  0  0  0  0  0  0  0  0  0  0
   32.3537  -14.3260   -2.5618 H   0  0  0  0  0  0  0  0  0  0  0  0
   32.1647  -12.6430   -2.1555 H   0  0  0  0  0  0  0  0  0  0  0  0
   30.3852  -12.5967   -3.3536 H   0  0  0  0  0  0  0  0  0  0  0  0
   30.4563  -14.2922   -3.6916 H   0  0  0  0  0  0  0  0  0  0  0  0
   27.7298  -14.8526   -3.3369 H   0  0  0  0  0  0  0  0  0  0  0  0
   28.2000  -13.2907   -4.0018 H   0  0  0  0  0  0  0  0  0  0  0  0
   26.3238  -13.5355   -1.6231 H   0  0  0  0  0  0  0  0  0  0  0  0
   25.8455  -13.3675   -3.3207 H   0  0  0  0  0  0  0  0  0  0  0  0
   27.2156  -11.2961   -1.6815 H   0  0  0  0  0  0  0  0  0  0  0  0
   24.8824   -5.1743  -20.2271 H   0  0  0  0  0  0  0  0  0  0  0  0
   24.0098   -3.2298  -19.9395 H   0  0  0  0  0  0  0  0  0  0  0  0
   22.3144   -3.6681  -20.0965 H   0  0  0  0  0  0  0  0  0  0  0  0
   24.0312   -7.1651  -21.6212 H   0  0  0  0  0  0  0  0  0  0  0  0
   23.1506   -2.2240  -22.0418 H   0  0  0  0  0  0  0  0  0  0  0  0
   23.9913   -6.0374  -23.7718 H   0  0  0  0  0  0  0  0  0  0  0  0
   23.5922   -3.6274  -23.9926 H   0  0  0  0  0  0  0  0  0  0  0  0
   25.3767   -5.5439   -8.3754 H   0  0  0  0  0  0  0  0  0  0  0  0
   23.9332   -5.5027  -10.2366 H   0  0  0  0  0  0  0  0  0  0  0  0
   25.7930   -7.3954  -11.6733 H   0  0  0  0  0  0  0  0  0  0  0  0
   25.8919   -5.7091  -12.2117 H   0  0  0  0  0  0  0  0  0  0  0  0
   23.2229   -6.2556  -12.5641 H   0  0  0  0  0  0  0  0  0  0  0  0
   25.9739  -13.0917   -5.6537 H   0  0  0  0  0  0  0  0  0  0  0  0
  1  2  1  0  0  0  0
  1  7  1  0  0  0  0
  1 72  1  0  0  0  0
  1 73  1  0  0  0  0
  2  3  2  0  0  0  0
  2 16  1  0  0  0  0
  4  5  1  0  0  0  0
  4  9  1  0  0  0  0
  4 12  1  0  0  0  0
  4 74  1  6  0  0  0
  5  6  2  0  0  0  0
  5 75  1  0  0  0  0
  6  7  1  0  0  0  0
  6 76  1  0  0  0  0
  7  8  1  0  0  0  0
  7 77  1  6  0  0  0
  8  9  1  0  0  0  0
  8 78  1  0  0  0  0
  8 79  1  0  0  0  0
  9 80  1  0  0  0  0
  9 81  1  0  0  0  0
 10 13  1  0  0  0  0
 10 15  1  0  0  0  0
 10 82  1  0  0  0  0
 10 83  1  0  0  0  0
 11 12  1  0  0  0  0
 11 13  1  0  0  0  0
 11 84  1  0  0  0  0
 11 85  1  0  0  0  0
 12 14  1  0  0  0  0
 12 86  1  1  0  0  0
 13 87  1  0  0  0  0
 13 88  1  0  0  0  0
 14 15  2  0  0  0  0
 14 89  1  0  0  0  0
 15 90  1  0  0  0  0
 16 17  1  0  0  0  0
 16 91  1  0  0  0  0
 17 18  1  0  0  0  0
 17 20  1  0  0  0  0
 17 92  1  1  0  0  0
 18 19  2  0  0  0  0
 18 28  1  0  0  0  0
 20 67  1  0  0  0  0
 20 93  1  0  0  0  0
 20 94  1  0  0  0  0
 21 22  1  0  0  0  0
 21 66  1  0  0  0  0
 21 95  1  0  0  0  0
 21 96  1  0  0  0  0
 22 23  2  0  0  0  0
 22 24  1  0  0  0  0
 23 25  1  0  0  0  0
 23 97  1  0  0  0  0
 24 26  2  0  0  0  0
 24 98  1  0  0  0  0
 25 27  2  0  0  0  0
 25 99  1  0  0  0  0
 26 27  1  0  0  0  0
 26100  1  0  0  0  0
 27 60  1  0  0  0  0
 28 29  1  0  0  0  0
 28101  1  0  0  0  0
 29 30  1  0  0  0  0
 29 37  1  0  0  0  0
 29102  1  1  0  0  0
 30 31  1  0  0  0  0
 30103  1  0  0  0  0
 30104  1  0  0  0  0
 31 32  1  0  0  0  0
 31105  1  0  0  0  0
 31106  1  0  0  0  0
 32 33  1  0  0  0  0
 32107  1  0  0  0  0
 32108  1  0  0  0  0
 33 34  1  0  0  0  0
 33109  1  0  0  0  0
 34 35  2  0  0  0  0
 34 36  1  0  0  0  0
 35110  1  0  0  0  0
 35152  1  0  0  0  0
 36111  1  0  0  0  0
 36112  1  0  0  0  0
 37 38  2  0  0  0  0
 37 39  1  0  0  0  0
 39 40  1  0  0  0  0
 39113  1  0  0  0  0
 40 41  1  0  0  0  0
 40 43  1  0  0  0  0
 40114  1  1  0  0  0
 41 42  2  0  0  0  0
 41 59  1  0  0  0  0
 43 44  1  0  0  0  0
 43115  1  0  0  0  0
 43116  1  0  0  0  0
 44 45  1  0  0  0  0
 44 46  1  0  0  0  0
 44117  1  6  0  0  0
 45 47  1  0  0  0  0
 45118  1  0  0  0  0
 45119  1  0  0  0  0
 46 48  2  0  0  0  0
 46120  1  0  0  0  0
 47 49  1  0  0  0  0
 47121  1  0  0  0  0
 47122  1  0  0  0  0
 48 49  1  0  0  0  0
 48123  1  0  0  0  0
 49 50  2  0  0  0  0
 51 52  1  0  0  0  0
 51 56  1  0  0  0  0
 51 57  1  0  0  0  0
 51124  1  0  0  0  0
 52 53  1  0  0  0  0
 52125  1  0  0  0  0
 52126  1  0  0  0  0
 53 54  1  0  0  0  0
 53127  1  0  0  0  0
 53128  1  0  0  0  0
 54 55  1  0  0  0  0
 54129  1  0  0  0  0
 54130  1  0  0  0  0
 55 56  1  0  0  0  0
 55131  1  0  0  0  0
 55132  1  0  0  0  0
 56133  1  0  0  0  0
 56134  1  0  0  0  0
 57 58  1  0  0  0  0
 57135  1  0  0  0  0
 57136  1  0  0  0  0
 58 59  1  0  0  0  0
 58137  1  0  0  0  0
 58138  1  0  0  0  0
 59139  1  0  0  0  0
 60 61  1  0  0  0  0
 60 62  1  0  0  0  0
 60140  1  1  0  0  0
 61 63  1  0  0  0  0
 61141  1  0  0  0  0
 61142  1  0  0  0  0
 62 64  2  0  0  0  0
 62143  1  0  0  0  0
 63 65  2  0  0  0  0
 63144  1  0  0  0  0
 64 65  1  0  0  0  0
 64145  1  0  0  0  0
 65146  1  0  0  0  0
 66 70  1  0  0  0  0
 66 71  2  0  0  0  0
 67 68  2  0  0  0  0
 67147  1  0  0  0  0
 68 69  1  0  0  0  0
 68148  1  0  0  0  0
 69 70  1  0  0  0  0
 69149  1  0  0  0  0
 69150  1  0  0  0  0
 70151  1  0  0  0  0
M  END
$$$$
