NSY
 OpenBabel04091912523D

153158  0  0  1  0  0  0  0  0999 V2000
    3.2782   -4.8202    6.0162 C   0  0  0  0  0  0  0  0  0  0  0  0
    1.9803   -4.5669    6.7398 C   0  0  0  0  0  0  0  0  0  0  0  0
    1.4831   -3.4591    6.8735 O   0  0  0  0  0  0  0  0  0  0  0  0
    3.8885   -6.4400    1.8610 C   0  0  2  0  0  0  0  0  0  0  0  0
    4.8923   -6.3713    2.9955 C   0  0  0  0  0  0  0  0  0  0  0  0
    4.6271   -5.8668    4.2041 C   0  0  0  0  0  0  0  0  0  0  0  0
    3.2406   -5.6899    4.7376 C   0  0  2  0  0  0  0  0  0  0  0  0
    2.0897   -5.6728    3.7070 C   0  0  0  0  0  0  0  0  0  0  0  0
    2.4000   -6.3265    2.3155 C   0  0  0  0  0  0  0  0  0  0  0  0
    5.3460   -8.4769   -1.9929 C   0  0  0  0  0  0  0  0  0  0  0  0
    3.3222   -7.5247   -0.5390 C   0  0  0  0  0  0  0  0  0  0  0  0
    4.2367   -7.5129    0.7047 C   0  0  0  0  0  0  0  0  0  0  0  0
    3.8718   -8.1444   -1.8323 C   0  0  0  0  0  0  0  0  0  0  0  0
    5.7577   -7.5970    0.4234 C   0  0  0  0  0  0  0  0  0  0  0  0
    6.2993   -8.2068   -0.8573 C   0  0  0  0  0  0  0  0  0  0  0  0
    1.4927   -5.7159    7.3003 N   0  0  0  0  0  0  0  0  0  0  0  0
    0.2962   -5.8696    8.1099 C   0  0  2  0  0  0  0  0  0  0  0  0
    0.3862   -7.3605    8.5278 C   0  0  0  0  0  0  0  0  0  0  0  0
    1.0487   -8.1833    7.8826 O   0  0  0  0  0  0  0  0  0  0  0  0
   -1.0017   -5.6539    7.3145 C   0  0  0  0  0  0  0  0  0  0  0  0
   -5.4469   -3.3926    2.8762 C   0  0  0  0  0  0  0  0  0  0  0  0
   -5.1547   -2.9223    1.4687 C   0  0  0  0  0  0  0  0  0  0  0  0
   -4.3907   -1.7858    1.2341 C   0  0  0  0  0  0  0  0  0  0  0  0
   -5.7144   -3.5883    0.3640 C   0  0  0  0  0  0  0  0  0  0  0  0
   -4.1972   -1.3117   -0.0715 C   0  0  0  0  0  0  0  0  0  0  0  0
   -5.5089   -3.0964   -0.9390 C   0  0  0  0  0  0  0  0  0  0  0  0
   -4.7464   -1.9468   -1.2113 C   0  0  0  0  0  0  0  0  0  0  0  0
   -0.3992   -7.7124    9.6070 N   0  0  0  0  0  0  0  0  0  0  0  0
   -0.2309   -9.0120   10.2464 C   0  0  2  0  0  0  0  0  0  0  0  0
   -0.5813  -10.2729    9.3803 C   0  0  0  0  0  0  0  0  0  0  0  0
   -1.8852  -10.3983    8.5069 C   0  0  0  0  0  0  0  0  0  0  0  0
   -3.2080  -10.4541    9.3193 C   0  0  0  0  0  0  0  0  0  0  0  0
   -4.5186  -10.5779    8.5830 N   0  0  0  0  0  0  0  0  0  0  0  0
   -5.7168  -10.4099    9.2069 C   0  0  0  0  0  0  0  0  0  0  0  0
   -6.0532  -11.0360   10.3464 N   0  0  0  0  0  0  0  0  0  0  0  0
   -6.6938   -9.6329    8.6794 N   0  0  0  0  0  0  0  0  0  0  0  0
   -0.9279   -9.0995   11.6196 C   0  0  0  0  0  0  0  0  0  0  0  0
   -0.6731  -10.0148   12.3894 O   0  0  0  0  0  0  0  0  0  0  0  0
   -1.9020   -8.1590   11.8960 N   0  0  0  0  0  0  0  0  0  0  0  0
   -2.7085   -8.3563   13.0912 C   0  0  2  0  0  0  0  0  0  0  0  0
   -3.6740   -9.5544   12.8109 C   0  0  0  0  0  0  0  0  0  0  0  0
   -4.4199   -9.5857   11.8496 O   0  0  0  0  0  0  0  0  0  0  0  0
   -3.5880   -7.1197   13.4834 C   0  0  0  0  0  0  0  0  0  0  0  0
   -4.3070   -7.4816   14.8235 C   0  0  1  0  0  0  0  0  0  0  0  0
   -3.5716   -7.0510   16.0934 C   0  0  0  0  0  0  0  0  0  0  0  0
   -5.7978   -7.6750   14.8750 C   0  0  0  0  0  0  0  0  0  0  0  0
   -4.2950   -7.3257   17.4131 C   0  0  0  0  0  0  0  0  0  0  0  0
   -6.4137   -7.9098   16.0448 C   0  0  0  0  0  0  0  0  0  0  0  0
   -5.7556   -7.7792   17.3830 C   0  0  0  0  0  0  0  0  0  0  0  0
   -3.0267  -13.7584   13.4039 C   0  0  0  0  0  0  0  0  0  0  0  0
   -2.8751  -13.9582   14.9075 C   0  0  0  0  0  0  0  0  0  0  0  0
   -1.6940  -14.8109   15.3580 C   0  0  0  0  0  0  0  0  0  0  0  0
   -0.6035  -15.1691   14.3657 C   0  0  0  0  0  0  0  0  0  0  0  0
   -0.6736  -14.7072   12.9255 C   0  0  0  0  0  0  0  0  0  0  0  0
   -1.8346  -13.8642   12.4677 C   0  0  0  0  0  0  0  0  0  0  0  0
   -4.0476  -12.7583   12.8395 C   0  0  0  0  0  0  0  0  0  0  0  0
   -4.6282  -11.6635   13.7004 C   0  0  0  0  0  0  0  0  0  0  0  0
   -3.6864  -10.5608   13.8042 N   0  0  0  0  0  0  0  0  0  0  0  0
   -4.4887   -1.3916   -2.6016 C   0  0  0  0  0  0  0  0  0  0  0  0
   -3.6735   -0.2456   -2.8182 C   0  0  0  0  0  0  0  0  0  0  0  0
   -5.0203   -1.9684   -3.7659 C   0  0  0  0  0  0  0  0  0  0  0  0
   -3.4038    0.2760   -4.0888 C   0  0  0  0  0  0  0  0  0  0  0  0
   -4.7592   -1.4458   -5.0550 C   0  0  0  0  0  0  0  0  0  0  0  0
   -3.9507   -0.3256   -5.2135 C   0  0  0  0  0  0  0  0  0  0  0  0
   -4.2613   -3.9158    3.5778 C   0  0  0  0  0  0  0  0  0  0  0  0
   -1.8323   -4.4502    7.6993 C   0  0  0  0  0  0  0  0  0  0  0  0
   -2.5736   -3.7063    6.8562 C   0  0  0  0  0  0  0  0  0  0  0  0
   -2.6794   -3.9435    5.3898 C   0  0  0  0  0  0  0  0  0  0  0  0
   -3.8535   -3.3803    4.8055 N   0  0  0  0  0  0  0  0  0  0  0  0
   -3.6505   -4.9525    3.1293 O   0  0  0  0  0  0  0  0  0  0  0  0
    3.8628   -5.4257    6.7388 H   0  0  0  0  0  0  0  0  0  0  0  0
    3.8426   -3.8838    5.9473 H   0  0  0  0  0  0  0  0  0  0  0  0
    4.0633   -5.4692    1.3853 H   0  0  0  0  0  0  0  0  0  0  0  0
    5.9335   -6.6063    2.7911 H   0  0  0  0  0  0  0  0  0  0  0  0
    5.4555   -5.6937    4.8956 H   0  0  0  0  0  0  0  0  0  0  0  0
    3.0775   -6.6789    5.1703 H   0  0  0  0  0  0  0  0  0  0  0  0
    1.6070   -4.6964    3.5627 H   0  0  0  0  0  0  0  0  0  0  0  0
    1.2878   -6.2866    4.1538 H   0  0  0  0  0  0  0  0  0  0  0  0
    1.8575   -7.2801    2.2383 H   0  0  0  0  0  0  0  0  0  0  0  0
    1.9204   -5.6776    1.5694 H   0  0  0  0  0  0  0  0  0  0  0  0
    5.7247   -7.9562   -2.8841 H   0  0  0  0  0  0  0  0  0  0  0  0
    5.4367   -9.5396   -2.2608 H   0  0  0  0  0  0  0  0  0  0  0  0
    2.8523   -6.5580   -0.7727 H   0  0  0  0  0  0  0  0  0  0  0  0
    2.4577   -8.1508   -0.2596 H   0  0  0  0  0  0  0  0  0  0  0  0
    4.0129   -8.4875    1.1486 H   0  0  0  0  0  0  0  0  0  0  0  0
    3.3152   -9.0710   -2.0337 H   0  0  0  0  0  0  0  0  0  0  0  0
    3.6000   -7.4849   -2.6685 H   0  0  0  0  0  0  0  0  0  0  0  0
    6.1452   -8.2458    1.2214 H   0  0  0  0  0  0  0  0  0  0  0  0
    6.2728   -6.6363    0.5692 H   0  0  0  0  0  0  0  0  0  0  0  0
    7.1127   -7.5683   -1.2349 H   0  0  0  0  0  0  0  0  0  0  0  0
    6.8189   -9.1445   -0.6101 H   0  0  0  0  0  0  0  0  0  0  0  0
    1.9778   -6.5851    7.0946 H   0  0  0  0  0  0  0  0  0  0  0  0
    0.3729   -5.2206    8.9991 H   0  0  0  0  0  0  0  0  0  0  0  0
   -1.6442   -6.5336    7.4412 H   0  0  0  0  0  0  0  0  0  0  0  0
   -0.7364   -5.6028    6.2581 H   0  0  0  0  0  0  0  0  0  0  0  0
   -6.1296   -4.2557    2.8082 H   0  0  0  0  0  0  0  0  0  0  0  0
   -5.9446   -2.6122    3.4323 H   0  0  0  0  0  0  0  0  0  0  0  0
   -3.9441   -1.2360    2.0620 H   0  0  0  0  0  0  0  0  0  0  0  0
   -6.3119   -4.4772    0.5250 H   0  0  0  0  0  0  0  0  0  0  0  0
   -3.6026   -0.4155   -0.1580 H   0  0  0  0  0  0  0  0  0  0  0  0
   -5.9951   -3.6658   -1.7404 H   0  0  0  0  0  0  0  0  0  0  0  0
   -0.6557   -6.9326   10.2050 H   0  0  0  0  0  0  0  0  0  0  0  0
    0.8473   -9.0855   10.5009 H   0  0  0  0  0  0  0  0  0  0  0  0
   -0.5720  -11.1394   10.0551 H   0  0  0  0  0  0  0  0  0  0  0  0
    0.2714  -10.4363    8.7060 H   0  0  0  0  0  0  0  0  0  0  0  0
   -1.7848  -11.3400    7.9450 H   0  0  0  0  0  0  0  0  0  0  0  0
   -1.9030   -9.6070    7.7492 H   0  0  0  0  0  0  0  0  0  0  0  0
   -3.2661   -9.4960    9.8256 H   0  0  0  0  0  0  0  0  0  0  0  0
   -3.1473  -11.2965   10.0076 H   0  0  0  0  0  0  0  0  0  0  0  0
   -4.5325  -10.7679    7.5873 H   0  0  0  0  0  0  0  0  0  0  0  0
   -6.9151  -10.8379   10.8397 H   0  0  0  0  0  0  0  0  0  0  0  0
   -6.5504   -9.0756    7.8554 H   0  0  0  0  0  0  0  0  0  0  0  0
   -7.5537   -9.4652    9.2003 H   0  0  0  0  0  0  0  0  0  0  0  0
   -2.2232   -7.5269   11.1743 H   0  0  0  0  0  0  0  0  0  0  0  0
   -2.0224   -8.5685   13.9172 H   0  0  0  0  0  0  0  0  0  0  0  0
   -4.2973   -6.8925   12.6694 H   0  0  0  0  0  0  0  0  0  0  0  0
   -2.9516   -6.2183   13.5679 H   0  0  0  0  0  0  0  0  0  0  0  0
   -4.0793   -8.5357   14.8986 H   0  0  0  0  0  0  0  0  0  0  0  0
   -3.2273   -6.0115   16.0648 H   0  0  0  0  0  0  0  0  0  0  0  0
   -2.6490   -7.6521   16.1218 H   0  0  0  0  0  0  0  0  0  0  0  0
   -6.3441   -7.8723   13.9540 H   0  0  0  0  0  0  0  0  0  0  0  0
   -4.2301   -6.4187   18.0247 H   0  0  0  0  0  0  0  0  0  0  0  0
   -3.7195   -8.0774   17.9721 H   0  0  0  0  0  0  0  0  0  0  0  0
   -7.4498   -8.2498   16.0704 H   0  0  0  0  0  0  0  0  0  0  0  0
   -6.3454   -7.0638   17.9691 H   0  0  0  0  0  0  0  0  0  0  0  0
   -5.8362   -8.7342   17.9199 H   0  0  0  0  0  0  0  0  0  0  0  0
   -3.5265  -14.7002   13.1670 H   0  0  0  0  0  0  0  0  0  0  0  0
   -3.7779  -14.5137   15.2142 H   0  0  0  0  0  0  0  0  0  0  0  0
   -2.9132  -13.0439   15.5127 H   0  0  0  0  0  0  0  0  0  0  0  0
   -2.0782  -15.7516   15.7804 H   0  0  0  0  0  0  0  0  0  0  0  0
   -1.2170  -14.3140   16.2134 H   0  0  0  0  0  0  0  0  0  0  0  0
   -0.5056  -16.2631   14.3546 H   0  0  0  0  0  0  0  0  0  0  0  0
    0.3499  -14.8136   14.7759 H   0  0  0  0  0  0  0  0  0  0  0  0
   -0.6317  -15.5979   12.2841 H   0  0  0  0  0  0  0  0  0  0  0  0
    0.2458  -14.1539   12.6998 H   0  0  0  0  0  0  0  0  0  0  0  0
   -1.4678  -12.8979   12.0969 H   0  0  0  0  0  0  0  0  0  0  0  0
   -2.2373  -14.3537   11.5652 H   0  0  0  0  0  0  0  0  0  0  0  0
   -4.8989  -13.3722   12.5090 H   0  0  0  0  0  0  0  0  0  0  0  0
   -3.6478  -12.2936   11.9319 H   0  0  0  0  0  0  0  0  0  0  0  0
   -4.9271  -12.0120   14.6953 H   0  0  0  0  0  0  0  0  0  0  0  0
   -5.5300  -11.2973   13.2125 H   0  0  0  0  0  0  0  0  0  0  0  0
   -3.0439  -10.5481   14.5762 H   0  0  0  0  0  0  0  0  0  0  0  0
   -3.2130    0.2871   -1.9907 H   0  0  0  0  0  0  0  0  0  0  0  0
   -5.6641   -2.8481   -3.7263 H   0  0  0  0  0  0  0  0  0  0  0  0
   -2.7637    1.1523   -4.2021 H   0  0  0  0  0  0  0  0  0  0  0  0
   -5.1872   -1.9198   -5.9327 H   0  0  0  0  0  0  0  0  0  0  0  0
   -3.7475    0.0759   -6.1982 H   0  0  0  0  0  0  0  0  0  0  0  0
   -1.8332   -4.1568    8.7506 H   0  0  0  0  0  0  0  0  0  0  0  0
   -3.1320   -2.8618    7.2663 H   0  0  0  0  0  0  0  0  0  0  0  0
   -2.7381   -5.0308    5.2223 H   0  0  0  0  0  0  0  0  0  0  0  0
   -1.8052   -3.5641    4.8588 H   0  0  0  0  0  0  0  0  0  0  0  0
   -4.1416   -2.4115    4.9990 H   0  0  0  0  0  0  0  0  0  0  0  0
   -5.3825  -11.6153   10.8250 H   0  0  0  0  0  0  0  0  0  0  0  0
  1  2  1  0  0  0  0
  1  7  1  0  0  0  0
  1 71  1  0  0  0  0
  1 72  1  0  0  0  0
  2  3  2  0  0  0  0
  2 16  1  0  0  0  0
  4  5  1  0  0  0  0
  4  9  1  0  0  0  0
  4 12  1  0  0  0  0
  4 73  1  6  0  0  0
  5  6  2  0  0  0  0
  5 74  1  0  0  0  0
  6  7  1  0  0  0  0
  6 75  1  0  0  0  0
  7  8  1  0  0  0  0
  7 76  1  1  0  0  0
  8  9  1  0  0  0  0
  8 77  1  0  0  0  0
  8 78  1  0  0  0  0
  9 79  1  0  0  0  0
  9 80  1  0  0  0  0
 10 13  1  0  0  0  0
 10 15  1  0  0  0  0
 10 81  1  0  0  0  0
 10 82  1  0  0  0  0
 11 12  1  0  0  0  0
 11 13  1  0  0  0  0
 11 83  1  0  0  0  0
 11 84  1  0  0  0  0
 12 14  1  0  0  0  0
 12 85  1  0  0  0  0
 13 86  1  0  0  0  0
 13 87  1  0  0  0  0
 14 15  1  0  0  0  0
 14 88  1  0  0  0  0
 14 89  1  0  0  0  0
 15 90  1  0  0  0  0
 15 91  1  0  0  0  0
 16 17  1  0  0  0  0
 16 92  1  0  0  0  0
 17 18  1  0  0  0  0
 17 20  1  0  0  0  0
 17 93  1  1  0  0  0
 18 19  2  0  0  0  0
 18 28  1  0  0  0  0
 20 66  1  0  0  0  0
 20 94  1  0  0  0  0
 20 95  1  0  0  0  0
 21 22  1  0  0  0  0
 21 65  1  0  0  0  0
 21 96  1  0  0  0  0
 21 97  1  0  0  0  0
 22 23  2  0  0  0  0
 22 24  1  0  0  0  0
 23 25  1  0  0  0  0
 23 98  1  0  0  0  0
 24 26  2  0  0  0  0
 24 99  1  0  0  0  0
 25 27  2  0  0  0  0
 25100  1  0  0  0  0
 26 27  1  0  0  0  0
 26101  1  0  0  0  0
 27 59  1  0  0  0  0
 28 29  1  0  0  0  0
 28102  1  0  0  0  0
 29 30  1  0  0  0  0
 29 37  1  0  0  0  0
 29103  1  1  0  0  0
 30 31  1  0  0  0  0
 30104  1  0  0  0  0
 30105  1  0  0  0  0
 31 32  1  0  0  0  0
 31106  1  0  0  0  0
 31107  1  0  0  0  0
 32 33  1  0  0  0  0
 32108  1  0  0  0  0
 32109  1  0  0  0  0
 33 34  1  0  0  0  0
 33110  1  0  0  0  0
 34 35  2  0  0  0  0
 34 36  1  0  0  0  0
 35111  1  0  0  0  0
 35153  1  0  0  0  0
 36112  1  0  0  0  0
 36113  1  0  0  0  0
 37 38  2  0  0  0  0
 37 39  1  0  0  0  0
 39 40  1  0  0  0  0
 39114  1  0  0  0  0
 40 41  1  0  0  0  0
 40 43  1  0  0  0  0
 40115  1  1  0  0  0
 41 42  2  0  0  0  0
 41 58  1  0  0  0  0
 43 44  1  0  0  0  0
 43116  1  0  0  0  0
 43117  1  0  0  0  0
 44 45  1  0  0  0  0
 44 46  1  0  0  0  0
 44118  1  1  0  0  0
 45 47  1  0  0  0  0
 45119  1  0  0  0  0
 45120  1  0  0  0  0
 46 48  2  0  0  0  0
 46121  1  0  0  0  0
 47 49  1  0  0  0  0
 47122  1  0  0  0  0
 47123  1  0  0  0  0
 48 49  1  0  0  0  0
 48124  1  0  0  0  0
 49125  1  0  0  0  0
 49126  1  0  0  0  0
 50 51  1  0  0  0  0
 50 55  1  0  0  0  0
 50 56  1  0  0  0  0
 50127  1  0  0  0  0
 51 52  1  0  0  0  0
 51128  1  0  0  0  0
 51129  1  0  0  0  0
 52 53  1  0  0  0  0
 52130  1  0  0  0  0
 52131  1  0  0  0  0
 53 54  1  0  0  0  0
 53132  1  0  0  0  0
 53133  1  0  0  0  0
 54 55  1  0  0  0  0
 54134  1  0  0  0  0
 54135  1  0  0  0  0
 55136  1  0  0  0  0
 55137  1  0  0  0  0
 56 57  1  0  0  0  0
 56138  1  0  0  0  0
 56139  1  0  0  0  0
 57 58  1  0  0  0  0
 57140  1  0  0  0  0
 57141  1  0  0  0  0
 58142  1  0  0  0  0
 59 60  2  0  0  0  0
 59 61  1  0  0  0  0
 60 62  1  0  0  0  0
 60143  1  0  0  0  0
 61 63  2  0  0  0  0
 61144  1  0  0  0  0
 62 64  2  0  0  0  0
 62145  1  0  0  0  0
 63 64  1  0  0  0  0
 63146  1  0  0  0  0
 64147  1  0  0  0  0
 65 69  1  0  0  0  0
 65 70  2  0  0  0  0
 66 67  2  0  0  0  0
 66148  1  0  0  0  0
 67 68  1  0  0  0  0
 67149  1  0  0  0  0
 68 69  1  0  0  0  0
 68150  1  0  0  0  0
 68151  1  0  0  0  0
 69152  1  0  0  0  0
M  END
$$$$
