NTM
 OpenBabel04091911083D

 15 15  0  0  0  0  0  0  0  0999 V2000
  -26.3486   14.3492   -7.2887 N   0  0  0  0  0  0  0  0  0  0  0  0
  -25.5047   13.2456   -7.2757 C   0  0  0  0  0  0  0  0  0  0  0  0
  -25.8428   12.0899   -6.5532 C   0  0  0  0  0  0  0  0  0  0  0  0
  -27.0425   12.1060   -5.8110 C   0  0  0  0  0  0  0  0  0  0  0  0
  -27.8780   13.2130   -5.8226 C   0  0  0  0  0  0  0  0  0  0  0  0
  -27.4914   14.2951   -6.5824 C   0  0  0  0  0  0  0  0  0  0  0  0
  -24.1532   13.3902   -8.0069 C   0  0  0  0  0  0  0  0  0  0  0  0
  -24.1732   13.8540   -9.2008 O   0  0  0  0  0  0  0  0  0  0  0  0
  -23.0849   13.2051   -7.3231 O   0  0  0  0  0  0  0  0  0  0  0  0
  -25.0502   10.8127   -6.5645 C   0  0  0  0  0  0  0  0  0  0  0  0
  -24.6569   10.3550   -7.6859 O   0  0  0  0  0  0  0  0  0  0  0  0
  -25.0083   10.1637   -5.4615 O   0  0  0  0  0  0  0  0  0  0  0  0
  -27.3100   11.2224   -5.2357 H   0  0  0  0  0  0  0  0  0  0  0  0
  -28.8026   13.2189   -5.2636 H   0  0  0  0  0  0  0  0  0  0  0  0
  -28.1054   15.1857   -6.6444 H   0  0  0  0  0  0  0  0  0  0  0  0
  1  2  2  0  0  0  0
  1  6  1  0  0  0  0
  2  3  1  0  0  0  0
  2  7  1  0  0  0  0
  3  4  2  0  0  0  0
  3 10  1  0  0  0  0
  4  5  1  0  0  0  0
  4 13  1  0  0  0  0
  5  6  2  0  0  0  0
  5 14  1  0  0  0  0
  6 15  1  0  0  0  0
  7  8  2  0  0  0  0
  7  9  1  0  0  0  0
 10 11  2  0  0  0  0
 10 12  1  0  0  0  0
M  END
$$$$
