NU7
 OpenBabel04091916463D

 62 66  0  0  1  0  0  0  0  0999 V2000
   -8.6150    6.4236  -21.3626 C   0  0  0  0  0  0  0  0  0  0  0  0
   -9.8463    6.1442  -20.5497 N   0  3  2  0  0  0  0  0  0  0  0  0
   -2.5848   -1.0845  -12.6418 F   0  0  0  0  0  0  0  0  0  0  0  0
   -3.8259   -1.3634  -12.1550 C   0  0  0  0  0  0  0  0  0  0  0  0
   -4.0833   -2.6516  -12.5139 F   0  0  0  0  0  0  0  0  0  0  0  0
   -3.7580   -1.3381  -10.7962 F   0  0  0  0  0  0  0  0  0  0  0  0
   -4.8777   -0.4425  -12.6554 C   0  0  0  0  0  0  0  0  0  0  0  0
   -5.9688   -0.7635  -13.3334 N   0  0  0  0  0  0  0  0  0  0  0  0
   -6.5977    0.4449  -13.5240 C   0  0  0  0  0  0  0  0  0  0  0  0
   -5.9279    1.4785  -12.9904 N   0  0  0  0  0  0  0  0  0  0  0  0
   -4.7841    0.8990  -12.4043 O   0  0  0  0  0  0  0  0  0  0  0  0
   -7.8505    0.5824  -14.2763 C   0  0  0  0  0  0  0  0  0  0  0  0
   -8.5879   -0.5436  -14.6847 C   0  0  0  0  0  0  0  0  0  0  0  0
   -9.7793   -0.3976  -15.4105 C   0  0  0  0  0  0  0  0  0  0  0  0
  -10.2524    0.8786  -15.7354 C   0  0  0  0  0  0  0  0  0  0  0  0
   -9.5329    2.0105  -15.3394 C   0  0  0  0  0  0  0  0  0  0  0  0
   -8.3412    1.8612  -14.6195 C   0  0  0  0  0  0  0  0  0  0  0  0
  -10.0592    3.3630  -15.7049 C   0  0  0  0  0  0  0  0  0  0  0  0
  -11.2332    3.6002  -15.7107 O   0  0  0  0  0  0  0  0  0  0  0  0
   -9.1162    4.2785  -16.1066 N   0  0  0  0  0  0  0  0  0  0  0  0
   -9.4808    5.5668  -16.6924 C   0  0  0  0  0  0  0  0  0  0  0  0
   -8.5490    5.9021  -17.8872 C   0  0  2  0  0  0  0  0  0  0  0  0
   -8.9758    7.2520  -18.5041 C   0  0  0  0  0  0  0  0  0  0  0  0
  -10.1015    7.2012  -19.5221 C   0  0  0  0  0  0  0  0  0  0  0  0
   -9.7839    4.7952  -19.9013 C   0  0  0  0  0  0  0  0  0  0  0  0
   -8.6189    4.7391  -18.9256 C   0  0  0  0  0  0  0  0  0  0  0  0
   -7.0802    5.9890  -17.3350 C   0  0  0  0  0  0  0  0  0  0  0  0
   -6.3917    4.9138  -16.9956 N   0  0  0  0  0  0  0  0  0  0  0  0
   -5.1015    5.2404  -16.5327 C   0  0  0  0  0  0  0  0  0  0  0  0
   -4.8100    6.5880  -16.5137 C   0  0  0  0  0  0  0  0  0  0  0  0
   -6.1916    7.4505  -17.0830 S   0  0  0  0  0  0  0  0  0  0  0  0
   -4.1463    4.2126  -16.0956 C   0  0  0  0  0  0  0  0  0  0  0  0
   -2.7595    4.4440  -16.0500 C   0  0  0  0  0  0  0  0  0  0  0  0
   -1.8726    3.4421  -15.6354 C   0  0  0  0  0  0  0  0  0  0  0  0
   -2.3626    2.1924  -15.2554 C   0  0  0  0  0  0  0  0  0  0  0  0
   -3.7347    1.9510  -15.3001 C   0  0  0  0  0  0  0  0  0  0  0  0
   -4.6202    2.9539  -15.7122 C   0  0  0  0  0  0  0  0  0  0  0  0
   -8.7168    7.4101  -21.8121 H   0  0  0  0  0  0  0  0  0  0  0  0
   -8.5226    5.6491  -22.1234 H   0  0  0  0  0  0  0  0  0  0  0  0
   -7.7585    6.4025  -20.6943 H   0  0  0  0  0  0  0  0  0  0  0  0
   -8.2268   -1.5403  -14.4366 H   0  0  0  0  0  0  0  0  0  0  0  0
  -10.3391   -1.2797  -15.7184 H   0  0  0  0  0  0  0  0  0  0  0  0
  -11.1747    0.9851  -16.3018 H   0  0  0  0  0  0  0  0  0  0  0  0
   -7.7824    2.7435  -14.3157 H   0  0  0  0  0  0  0  0  0  0  0  0
   -8.1342    4.0448  -16.0274 H   0  0  0  0  0  0  0  0  0  0  0  0
   -9.3680    6.3376  -15.9216 H   0  0  0  0  0  0  0  0  0  0  0  0
  -10.5308    5.5470  -17.0134 H   0  0  0  0  0  0  0  0  0  0  0  0
   -8.1025    7.7017  -18.9897 H   0  0  0  0  0  0  0  0  0  0  0  0
   -9.2870    7.9272  -17.6999 H   0  0  0  0  0  0  0  0  0  0  0  0
  -11.0524    6.9619  -19.0393 H   0  0  0  0  0  0  0  0  0  0  0  0
  -10.1912    8.1547  -20.0541 H   0  0  0  0  0  0  0  0  0  0  0  0
   -9.6678    4.0566  -20.7027 H   0  0  0  0  0  0  0  0  0  0  0  0
  -10.7380    4.6350  -19.3920 H   0  0  0  0  0  0  0  0  0  0  0  0
   -8.6825    3.7774  -18.4110 H   0  0  0  0  0  0  0  0  0  0  0  0
   -7.6835    4.7287  -19.4960 H   0  0  0  0  0  0  0  0  0  0  0  0
   -3.8725    7.0437  -16.1862 H   0  0  0  0  0  0  0  0  0  0  0  0
   -2.3494    5.4077  -16.3417 H   0  0  0  0  0  0  0  0  0  0  0  0
   -0.8014    3.6337  -15.6090 H   0  0  0  0  0  0  0  0  0  0  0  0
   -1.6791    1.4110  -14.9310 H   0  0  0  0  0  0  0  0  0  0  0  0
   -4.1175    0.9792  -15.0059 H   0  0  0  0  0  0  0  0  0  0  0  0
   -5.6860    2.7519  -15.7293 H   0  0  0  0  0  0  0  0  0  0  0  0
  -10.6450    6.1418  -21.2034 H   0  0  0  0  0  0  0  0  0  0  0  0
  1  2  1  0  0  0  0
  1 38  1  0  0  0  0
  1 39  1  0  0  0  0
  1 40  1  0  0  0  0
  2 24  1  0  0  0  0
  2 25  1  0  0  0  0
  2 62  1  6  0  0  0
  3  4  1  0  0  0  0
  4  5  1  0  0  0  0
  4  6  1  0  0  0  0
  4  7  1  0  0  0  0
  7  8  2  0  0  0  0
  7 11  1  0  0  0  0
  8  9  1  0  0  0  0
  9 10  2  0  0  0  0
  9 12  1  0  0  0  0
 10 11  1  0  0  0  0
 12 13  2  0  0  0  0
 12 17  1  0  0  0  0
 13 14  1  0  0  0  0
 13 41  1  0  0  0  0
 14 15  2  0  0  0  0
 14 42  1  0  0  0  0
 15 16  1  0  0  0  0
 15 43  1  0  0  0  0
 16 17  2  0  0  0  0
 16 18  1  0  0  0  0
 17 44  1  0  0  0  0
 18 19  2  0  0  0  0
 18 20  1  0  0  0  0
 20 21  1  0  0  0  0
 20 45  1  0  0  0  0
 21 46  1  0  0  0  0
 21 47  1  0  0  0  0
 22 21  1  1  0  0  0
 22 23  1  0  0  0  0
 22 26  1  0  0  0  0
 22 27  1  0  0  0  0
 23 24  1  0  0  0  0
 23 48  1  0  0  0  0
 23 49  1  0  0  0  0
 24 50  1  0  0  0  0
 24 51  1  0  0  0  0
 25 26  1  0  0  0  0
 25 52  1  0  0  0  0
 25 53  1  0  0  0  0
 26 54  1  0  0  0  0
 26 55  1  0  0  0  0
 27 28  2  0  0  0  0
 27 31  1  0  0  0  0
 28 29  1  0  0  0  0
 29 30  2  0  0  0  0
 29 32  1  0  0  0  0
 30 31  1  0  0  0  0
 30 56  1  0  0  0  0
 32 33  2  0  0  0  0
 32 37  1  0  0  0  0
 33 34  1  0  0  0  0
 33 57  1  0  0  0  0
 34 35  2  0  0  0  0
 34 58  1  0  0  0  0
 35 36  1  0  0  0  0
 35 59  1  0  0  0  0
 36 37  2  0  0  0  0
 36 60  1  0  0  0  0
 37 61  1  0  0  0  0
M  CHG  1   2   1
M  END
$$$$
