O40
 OpenBabel04091913133D

 57 59  0  0  0  0  0  0  0  0999 V2000
   23.8802  -14.6952   19.1492 C   0  0  0  0  0  0  0  0  0  0  0  0
   23.4498  -16.0236   19.1322 C   0  0  0  0  0  0  0  0  0  0  0  0
   24.3378  -17.0986   19.4491 C   0  0  0  0  0  0  0  0  0  0  0  0
   25.6531  -16.7187   19.7540 C   0  0  0  0  0  0  0  0  0  0  0  0
   26.0797  -15.4109   19.7554 C   0  0  0  0  0  0  0  0  0  0  0  0
   25.1943  -14.3647   19.4685 C   0  0  0  0  0  0  0  0  0  0  0  0
   26.6916  -17.5380   20.0830 O   0  0  0  0  0  0  0  0  0  0  0  0
   27.8290  -16.7710   20.3230 N   0  0  0  0  0  0  0  0  0  0  0  0
   27.4485  -15.5041   20.1085 C   0  0  0  0  0  0  0  0  0  0  0  0
   14.3655  -15.5768   17.7107 C   0  0  0  0  0  0  0  0  0  0  0  0
   22.1637  -16.3776   18.8185 O   0  0  0  0  0  0  0  0  0  0  0  0
   23.9270  -18.5428   19.4048 C   0  0  0  0  0  0  0  0  0  0  0  0
   13.1178  -15.0254   17.4235 C   0  0  0  0  0  0  0  0  0  0  0  0
   28.2831  -14.3212   20.3322 C   0  0  0  0  0  0  0  0  0  0  0  0
   21.2429  -15.3859   18.3324 C   0  0  0  0  0  0  0  0  0  0  0  0
   11.9452  -15.6021   17.9095 C   0  0  0  0  0  0  0  0  0  0  0  0
   24.2432  -19.2147   18.0603 C   0  0  0  0  0  0  0  0  0  0  0  0
   12.0514  -16.7620   18.6948 C   0  0  0  0  0  0  0  0  0  0  0  0
   13.3014  -17.3298   18.9741 C   0  0  0  0  0  0  0  0  0  0  0  0
   23.4632  -18.6119   16.9000 C   0  0  0  0  0  0  0  0  0  0  0  0
   18.0322  -17.3779   19.1585 N   0  0  0  0  0  0  0  0  0  0  0  0
   18.0663  -18.8243   19.2387 C   0  0  0  0  0  0  0  0  0  0  0  0
   16.8834  -16.6518   18.9155 C   0  0  0  0  0  0  0  0  0  0  0  0
   15.7159  -17.3480   18.7418 N   0  0  0  0  0  0  0  0  0  0  0  0
   19.9147  -16.1037   18.0619 C   0  0  0  0  0  0  0  0  0  0  0  0
   19.2903  -16.6348   19.3606 C   0  0  0  0  0  0  0  0  0  0  0  0
   10.5948  -13.8600   16.9778 O   0  0  0  0  0  0  0  0  0  0  0  0
   10.5933  -14.9788   17.5842 C   0  0  0  0  0  0  0  0  0  0  0  0
   16.9477  -15.4089   18.8979 O   0  0  0  0  0  0  0  0  0  0  0  0
    9.5606  -15.6364   17.9400 O   0  0  0  0  0  0  0  0  0  0  0  0
   29.5493  -14.6112   20.6888 F   0  0  0  0  0  0  0  0  0  0  0  0
   27.7381  -13.5625   21.3204 F   0  0  0  0  0  0  0  0  0  0  0  0
   28.3415  -13.5171   19.2337 F   0  0  0  0  0  0  0  0  0  0  0  0
   14.4701  -16.7349   18.4855 C   0  0  0  0  0  0  0  0  0  0  0  0
   23.1946  -13.8852   18.9114 H   0  0  0  0  0  0  0  0  0  0  0  0
   25.5143  -13.3293   19.4864 H   0  0  0  0  0  0  0  0  0  0  0  0
   15.2520  -15.1132   17.2833 H   0  0  0  0  0  0  0  0  0  0  0  0
   22.8595  -18.6373   19.6307 H   0  0  0  0  0  0  0  0  0  0  0  0
   24.4537  -19.0881   20.2028 H   0  0  0  0  0  0  0  0  0  0  0  0
   13.0550  -14.1335   16.8011 H   0  0  0  0  0  0  0  0  0  0  0  0
   21.6199  -14.9376   17.4008 H   0  0  0  0  0  0  0  0  0  0  0  0
   21.0890  -14.5865   19.0705 H   0  0  0  0  0  0  0  0  0  0  0  0
   24.0035  -20.2835   18.1242 H   0  0  0  0  0  0  0  0  0  0  0  0
   25.3157  -19.1350   17.8488 H   0  0  0  0  0  0  0  0  0  0  0  0
   11.1478  -17.2215   19.0923 H   0  0  0  0  0  0  0  0  0  0  0  0
   13.3537  -18.2067   19.6137 H   0  0  0  0  0  0  0  0  0  0  0  0
   23.7144  -19.1124   15.9605 H   0  0  0  0  0  0  0  0  0  0  0  0
   23.7002  -17.5519   16.7771 H   0  0  0  0  0  0  0  0  0  0  0  0
   22.3854  -18.7094   17.0627 H   0  0  0  0  0  0  0  0  0  0  0  0
   19.0786  -19.1836   19.4206 H   0  0  0  0  0  0  0  0  0  0  0  0
   17.6940  -19.2431   18.2964 H   0  0  0  0  0  0  0  0  0  0  0  0
   17.4128  -19.1542   20.0538 H   0  0  0  0  0  0  0  0  0  0  0  0
   15.6945  -18.3365   18.9212 H   0  0  0  0  0  0  0  0  0  0  0  0
   20.0982  -16.9501   17.3902 H   0  0  0  0  0  0  0  0  0  0  0  0
   19.2180  -15.4235   17.5598 H   0  0  0  0  0  0  0  0  0  0  0  0
   20.0067  -17.2771   19.8851 H   0  0  0  0  0  0  0  0  0  0  0  0
   19.0920  -15.7792   20.0270 H   0  0  0  0  0  0  0  0  0  0  0  0
  1  2  2  0  0  0  0
  1  6  1  0  0  0  0
  1 35  1  0  0  0  0
  2  3  1  0  0  0  0
  2 11  1  0  0  0  0
  3  4  2  0  0  0  0
  3 12  1  0  0  0  0
  4  5  1  0  0  0  0
  4  7  1  0  0  0  0
  5  6  2  0  0  0  0
  5  9  1  0  0  0  0
  6 36  1  0  0  0  0
  7  8  1  0  0  0  0
  8  9  2  0  0  0  0
  9 14  1  0  0  0  0
 10 13  2  0  0  0  0
 10 34  1  0  0  0  0
 10 37  1  0  0  0  0
 11 15  1  0  0  0  0
 12 17  1  0  0  0  0
 12 38  1  0  0  0  0
 12 39  1  0  0  0  0
 13 16  1  0  0  0  0
 13 40  1  0  0  0  0
 14 31  1  0  0  0  0
 14 32  1  0  0  0  0
 14 33  1  0  0  0  0
 15 25  1  0  0  0  0
 15 41  1  0  0  0  0
 15 42  1  0  0  0  0
 16 18  2  0  0  0  0
 16 28  1  0  0  0  0
 17 20  1  0  0  0  0
 17 43  1  0  0  0  0
 17 44  1  0  0  0  0
 18 19  1  0  0  0  0
 18 45  1  0  0  0  0
 19 34  2  0  0  0  0
 19 46  1  0  0  0  0
 20 47  1  0  0  0  0
 20 48  1  0  0  0  0
 20 49  1  0  0  0  0
 21 22  1  0  0  0  0
 21 23  1  0  0  0  0
 21 26  1  0  0  0  0
 22 50  1  0  0  0  0
 22 51  1  0  0  0  0
 22 52  1  0  0  0  0
 23 24  1  0  0  0  0
 23 29  2  0  0  0  0
 24 34  1  0  0  0  0
 24 53  1  0  0  0  0
 25 26  1  0  0  0  0
 25 54  1  0  0  0  0
 25 55  1  0  0  0  0
 26 56  1  0  0  0  0
 26 57  1  0  0  0  0
 27 28  2  0  0  0  0
 28 30  1  0  0  0  0
M  END
$$$$
