O4N
 OpenBabel04091916483D

 73 76  0  0  1  0  0  0  0  0999 V2000
  -11.6617   35.2390    7.0135 C   0  0  0  0  0  0  0  0  0  0  0  0
  -12.7875   34.8419    6.3031 C   0  0  0  0  0  0  0  0  0  0  0  0
  -10.6303   35.8954    6.3517 C   0  0  0  0  0  0  0  0  0  0  0  0
  -12.8743   35.0836    4.9275 C   0  0  0  0  0  0  0  0  0  0  0  0
   -9.4169   33.3608   -0.4777 C   0  0  0  0  0  0  0  0  0  0  0  0
   -6.7688   36.5347    1.4603 C   0  0  0  0  0  0  0  0  0  0  0  0
   -6.6847   34.5634    2.8352 C   0  0  0  0  0  0  0  0  0  0  0  0
   -9.3264   32.3690   -1.4547 C   0  0  0  0  0  0  0  0  0  0  0  0
   -6.4370   35.7478    0.3598 C   0  0  0  0  0  0  0  0  0  0  0  0
   -6.3714   33.7752    1.7293 C   0  0  0  0  0  0  0  0  0  0  0  0
  -10.7341   36.1477    4.9740 C   0  0  0  0  0  0  0  0  0  0  0  0
  -10.6193   31.8244    1.0173 C   0  0  0  0  0  0  0  0  0  0  0  0
   -6.8966   35.9463    2.7174 C   0  0  0  0  0  0  0  0  0  0  0  0
  -11.8488   35.7264    4.2304 C   0  0  0  0  0  0  0  0  0  0  0  0
  -10.0638   33.1113    0.7505 C   0  0  0  0  0  0  0  0  0  0  0  0
   -9.8787   31.1339   -1.1762 C   0  0  0  0  0  0  0  0  0  0  0  0
  -10.5022   30.8595    0.0198 C   0  0  0  0  0  0  0  0  0  0  0  0
   -6.2439   34.3681    0.4751 C   0  0  0  0  0  0  0  0  0  0  0  0
  -12.4754   37.2381   -0.5103 C   0  0  0  0  0  0  0  0  0  0  0  0
  -11.8674   36.0557   -0.3493 C   0  0  0  0  0  0  0  0  0  0  0  0
   -9.6197   36.8562    4.3043 C   0  0  0  0  0  0  0  0  0  0  0  0
  -11.2321   31.4620    2.3420 C   0  0  0  0  0  0  0  0  0  0  0  0
  -10.4771   29.0523   -1.1710 C   0  0  0  0  0  0  0  0  0  0  0  0
   -5.0535   37.8254    6.8448 C   0  0  0  0  0  0  0  0  0  0  0  0
   -5.6773   32.3096   -0.5253 C   0  0  0  0  0  0  0  0  0  0  0  0
  -11.9944   35.9330    2.7460 C   0  0  0  0  0  0  0  0  0  0  0  0
  -10.2152   34.2779    1.7276 C   0  0  0  0  0  0  0  0  0  0  0  0
  -12.3790   34.9221    0.4830 C   0  0  0  0  0  0  0  0  0  0  0  0
   -6.3326   37.7929    6.0416 C   0  0  0  0  0  0  0  0  0  0  0  0
   -6.0748   36.8314    4.8871 C   0  0  0  0  0  0  0  0  0  0  0  0
   -7.2154   36.8324    3.9018 C   0  0  2  0  0  0  0  0  0  0  0  0
   -8.3832   36.3773    4.6111 N   0  0  0  0  0  0  0  0  0  0  0  0
  -11.6808   34.7680    1.8213 N   0  3  2  0  0  0  0  0  0  0  0  0
  -11.0782   30.3006    2.7561 O   0  0  0  0  0  0  0  0  0  0  0  0
   -9.8144   37.7427    3.5167 O   0  0  0  0  0  0  0  0  0  0  0  0
  -11.8230   32.4342    2.9580 O   0  0  0  0  0  0  0  0  0  0  0  0
   -9.9082   30.0676   -2.0290 O   0  0  0  0  0  0  0  0  0  0  0  0
  -10.9865   29.5877    0.0507 O   0  0  0  0  0  0  0  0  0  0  0  0
   -5.9787   33.6955   -0.6776 O   0  0  0  0  0  0  0  0  0  0  0  0
  -11.6043   35.0301    8.0767 H   0  0  0  0  0  0  0  0  0  0  0  0
  -13.6077   34.3321    6.8058 H   0  0  0  0  0  0  0  0  0  0  0  0
   -9.7504   36.2185    6.9009 H   0  0  0  0  0  0  0  0  0  0  0  0
  -13.7596   34.7419    4.3963 H   0  0  0  0  0  0  0  0  0  0  0  0
   -8.9708   34.3379   -0.6726 H   0  0  0  0  0  0  0  0  0  0  0  0
   -6.9308   37.6041    1.3443 H   0  0  0  0  0  0  0  0  0  0  0  0
   -6.7684   34.0802    3.8031 H   0  0  0  0  0  0  0  0  0  0  0  0
   -8.8201   32.5743   -2.3888 H   0  0  0  0  0  0  0  0  0  0  0  0
   -6.3251   36.2117   -0.6172 H   0  0  0  0  0  0  0  0  0  0  0  0
   -6.2343   32.7028    1.8571 H   0  0  0  0  0  0  0  0  0  0  0  0
  -12.0220   37.9973   -1.1434 H   0  0  0  0  0  0  0  0  0  0  0  0
  -13.4112   37.4697   -0.0111 H   0  0  0  0  0  0  0  0  0  0  0  0
  -10.9448   35.8844   -0.8903 H   0  0  0  0  0  0  0  0  0  0  0  0
   -9.6949   28.3104   -0.9477 H   0  0  0  0  0  0  0  0  0  0  0  0
  -11.2863   28.5464   -1.7179 H   0  0  0  0  0  0  0  0  0  0  0  0
   -5.1430   38.4960    7.6975 H   0  0  0  0  0  0  0  0  0  0  0  0
   -4.2243   38.1653    6.2119 H   0  0  0  0  0  0  0  0  0  0  0  0
   -4.8111   36.8184    7.2059 H   0  0  0  0  0  0  0  0  0  0  0  0
   -5.4862   31.8799   -1.5131 H   0  0  0  0  0  0  0  0  0  0  0  0
   -6.5199   31.7737   -0.0765 H   0  0  0  0  0  0  0  0  0  0  0  0
   -4.7795   32.1820    0.0889 H   0  0  0  0  0  0  0  0  0  0  0  0
  -11.3987   36.7716    2.4127 H   0  0  0  0  0  0  0  0  0  0  0  0
  -13.0491   36.2061    2.5531 H   0  0  0  0  0  0  0  0  0  0  0  0
   -9.5765   35.1093    1.3920 H   0  0  0  0  0  0  0  0  0  0  0  0
   -9.8384   33.9641    2.7166 H   0  0  0  0  0  0  0  0  0  0  0  0
  -12.2858   33.9864   -0.0829 H   0  0  0  0  0  0  0  0  0  0  0  0
  -13.4506   35.0653    0.6856 H   0  0  0  0  0  0  0  0  0  0  0  0
   -6.5910   38.7896    5.6591 H   0  0  0  0  0  0  0  0  0  0  0  0
   -7.1752   37.4460    6.6573 H   0  0  0  0  0  0  0  0  0  0  0  0
   -5.9526   35.8202    5.2976 H   0  0  0  0  0  0  0  0  0  0  0  0
   -5.1506   37.1180    4.3778 H   0  0  0  0  0  0  0  0  0  0  0  0
   -7.3724   37.8545    3.5366 H   0  0  0  0  0  0  0  0  0  0  0  0
   -8.2687   35.7223    5.3666 H   0  0  0  0  0  0  0  0  0  0  0  0
  -12.1237   33.9335    2.2759 H   0  0  0  0  0  0  0  0  0  0  0  0
  1  2  2  0  0  0  0
  1  3  1  0  0  0  0
  1 40  1  0  0  0  0
  2  4  1  0  0  0  0
  2 41  1  0  0  0  0
  3 11  2  0  0  0  0
  3 42  1  0  0  0  0
  4 14  2  0  0  0  0
  4 43  1  0  0  0  0
  5  8  2  0  0  0  0
  5 15  1  0  0  0  0
  5 44  1  0  0  0  0
  6  9  2  0  0  0  0
  6 13  1  0  0  0  0
  6 45  1  0  0  0  0
  7 10  1  0  0  0  0
  7 13  2  0  0  0  0
  7 46  1  0  0  0  0
  8 16  1  0  0  0  0
  8 47  1  0  0  0  0
  9 18  1  0  0  0  0
  9 48  1  0  0  0  0
 10 18  2  0  0  0  0
 10 49  1  0  0  0  0
 11 14  1  0  0  0  0
 11 21  1  0  0  0  0
 12 15  2  0  0  0  0
 12 17  1  0  0  0  0
 12 22  1  0  0  0  0
 13 31  1  0  0  0  0
 14 26  1  0  0  0  0
 15 27  1  0  0  0  0
 16 17  2  0  0  0  0
 16 37  1  0  0  0  0
 17 38  1  0  0  0  0
 18 39  1  0  0  0  0
 19 20  2  0  0  0  0
 19 50  1  0  0  0  0
 19 51  1  0  0  0  0
 20 28  1  0  0  0  0
 20 52  1  0  0  0  0
 21 32  1  0  0  0  0
 21 35  2  0  0  0  0
 22 34  2  0  0  0  0
 22 36  1  0  0  0  0
 23 37  1  0  0  0  0
 23 38  1  0  0  0  0
 23 53  1  0  0  0  0
 23 54  1  0  0  0  0
 24 29  1  0  0  0  0
 24 55  1  0  0  0  0
 24 56  1  0  0  0  0
 24 57  1  0  0  0  0
 25 39  1  0  0  0  0
 25 58  1  0  0  0  0
 25 59  1  0  0  0  0
 25 60  1  0  0  0  0
 26 33  1  0  0  0  0
 26 61  1  0  0  0  0
 26 62  1  0  0  0  0
 27 33  1  0  0  0  0
 27 63  1  0  0  0  0
 27 64  1  0  0  0  0
 28 33  1  0  0  0  0
 28 65  1  0  0  0  0
 28 66  1  0  0  0  0
 29 30  1  0  0  0  0
 29 67  1  0  0  0  0
 29 68  1  0  0  0  0
 30 31  1  0  0  0  0
 30 69  1  0  0  0  0
 30 70  1  0  0  0  0
 31 32  1  0  0  0  0
 31 71  1  6  0  0  0
 32 72  1  0  0  0  0
 33 73  1  1  0  0  0
M  CHG  1  33   1
M  END
$$$$
