O60
 OpenBabel04091913083D

 44 43  0  0  0  0  0  0  0  0999 V2000
   -4.9650    1.8093   14.4593 C   0  0  0  0  0  0  0  0  0  0  0  0
   -5.3722   -0.6084   16.0522 N   0  0  0  0  0  0  0  0  0  0  0  0
   -7.2156    1.0301   16.4378 O   0  0  0  0  0  0  0  0  0  0  0  0
   -5.8003    0.8430   16.7295 S   0  0  0  0  0  0  0  0  0  0  0  0
   -4.2958    3.0332   13.8853 C   0  0  0  0  0  0  0  0  0  0  0  0
   -2.0336   12.5583   10.5212 N   0  0  0  0  0  0  0  0  0  0  0  0
   -5.2978    0.8458   18.0802 O   0  0  0  0  0  0  0  0  0  0  0  0
   -2.4673   13.2039   11.9853 S   0  0  0  0  0  0  0  0  0  0  0  0
   -5.1231    4.2844   14.1583 C   0  0  0  0  0  0  0  0  0  0  0  0
   -4.9608    1.9213   15.8692 O   0  0  0  0  0  0  0  0  0  0  0  0
   -4.4834    5.5157   13.5392 C   0  0  0  0  0  0  0  0  0  0  0  0
   -2.4299   11.9381   12.9856 O   0  0  0  0  0  0  0  0  0  0  0  0
   -3.1526    5.8567   14.2012 C   0  0  0  0  0  0  0  0  0  0  0  0
   -1.4047   14.1120   12.3531 O   0  0  0  0  0  0  0  0  0  0  0  0
   -2.5194    7.0537   13.5218 C   0  0  0  0  0  0  0  0  0  0  0  0
   -3.8367   13.6369   11.8652 O   0  0  0  0  0  0  0  0  0  0  0  0
   -1.2712    7.5018   14.2823 C   0  0  0  0  0  0  0  0  0  0  0  0
   -0.6858    8.7845   13.7075 C   0  0  0  0  0  0  0  0  0  0  0  0
   -1.6191    9.9685   13.9256 C   0  0  0  0  0  0  0  0  0  0  0  0
   -1.2636   11.1359   13.0393 C   0  0  0  0  0  0  0  0  0  0  0  0
   -4.3604    0.9405   14.1663 H   0  0  0  0  0  0  0  0  0  0  0  0
   -5.9814    1.6892   14.0753 H   0  0  0  0  0  0  0  0  0  0  0  0
   -5.7074   -1.4394   16.5054 H   0  0  0  0  0  0  0  0  0  0  0  0
   -4.6155   -0.6378   15.3740 H   0  0  0  0  0  0  0  0  0  0  0  0
   -4.1564    2.9013   12.8059 H   0  0  0  0  0  0  0  0  0  0  0  0
   -3.3078    3.1265   14.3464 H   0  0  0  0  0  0  0  0  0  0  0  0
   -2.0458   13.1846    9.7273 H   0  0  0  0  0  0  0  0  0  0  0  0
   -1.9323   11.5590   10.4141 H   0  0  0  0  0  0  0  0  0  0  0  0
   -5.2452    4.4359   15.2376 H   0  0  0  0  0  0  0  0  0  0  0  0
   -6.1254    4.1562   13.7338 H   0  0  0  0  0  0  0  0  0  0  0  0
   -5.1736    6.3606   13.6512 H   0  0  0  0  0  0  0  0  0  0  0  0
   -4.3374    5.3554   12.4642 H   0  0  0  0  0  0  0  0  0  0  0  0
   -2.4510    5.0205   14.1383 H   0  0  0  0  0  0  0  0  0  0  0  0
   -3.3211    6.0727   15.2634 H   0  0  0  0  0  0  0  0  0  0  0  0
   -3.2693    7.8468   13.4765 H   0  0  0  0  0  0  0  0  0  0  0  0
   -2.2542    6.8001   12.4885 H   0  0  0  0  0  0  0  0  0  0  0  0
   -0.5146    6.7111   14.2239 H   0  0  0  0  0  0  0  0  0  0  0  0
   -1.5105    7.6514   15.3406 H   0  0  0  0  0  0  0  0  0  0  0  0
   -0.4868    8.6397   12.6406 H   0  0  0  0  0  0  0  0  0  0  0  0
    0.2730    8.9947   14.1942 H   0  0  0  0  0  0  0  0  0  0  0  0
   -1.5983   10.2824   14.9749 H   0  0  0  0  0  0  0  0  0  0  0  0
   -2.6603    9.7015   13.7208 H   0  0  0  0  0  0  0  0  0  0  0  0
   -0.4185   11.7000   13.4405 H   0  0  0  0  0  0  0  0  0  0  0  0
   -1.0071   10.7730   12.0397 H   0  0  0  0  0  0  0  0  0  0  0  0
  1  5  1  0  0  0  0
  1 10  1  0  0  0  0
  1 21  1  0  0  0  0
  1 22  1  0  0  0  0
  2  4  1  0  0  0  0
  2 23  1  0  0  0  0
  2 24  1  0  0  0  0
  3  4  2  0  0  0  0
  4  7  2  0  0  0  0
  4 10  1  0  0  0  0
  5  9  1  0  0  0  0
  5 25  1  0  0  0  0
  5 26  1  0  0  0  0
  6  8  1  0  0  0  0
  6 27  1  0  0  0  0
  6 28  1  0  0  0  0
  8 12  1  0  0  0  0
  8 14  2  0  0  0  0
  8 16  2  0  0  0  0
  9 11  1  0  0  0  0
  9 29  1  0  0  0  0
  9 30  1  0  0  0  0
 11 13  1  0  0  0  0
 11 31  1  0  0  0  0
 11 32  1  0  0  0  0
 12 20  1  0  0  0  0
 13 15  1  0  0  0  0
 13 33  1  0  0  0  0
 13 34  1  0  0  0  0
 15 17  1  0  0  0  0
 15 35  1  0  0  0  0
 15 36  1  0  0  0  0
 17 18  1  0  0  0  0
 17 37  1  0  0  0  0
 17 38  1  0  0  0  0
 18 19  1  0  0  0  0
 18 39  1  0  0  0  0
 18 40  1  0  0  0  0
 19 20  1  0  0  0  0
 19 41  1  0  0  0  0
 19 42  1  0  0  0  0
 20 43  1  0  0  0  0
 20 44  1  0  0  0  0
M  END
$$$$
