OGN
 OpenBabel04091915233D

 46 47  0  0  1  0  0  0  0  0999 V2000
   36.1963   18.5622  -16.0703 C   0  0  2  0  0  0  0  0  0  0  0  0
   35.2228   17.9813  -17.1389 C   0  0  1  0  0  0  0  0  0  0  0  0
   34.4075   16.8282  -16.5493 C   0  0  2  0  0  0  0  0  0  0  0  0
   34.9687   16.3296  -15.2179 C   0  0  2  0  0  0  0  0  0  0  0  0
   34.9576   17.5046  -14.2461 C   0  0  1  0  0  0  0  0  0  0  0  0
   35.4559   17.0720  -12.8581 C   0  0  0  0  0  0  0  0  0  0  0  0
   33.4281   19.7173  -17.1668 C   0  0  0  0  0  0  0  0  0  0  0  0
   32.5098   20.4996  -18.0726 C   0  0  0  0  0  0  0  0  0  0  0  0
   34.3128   18.9129  -17.8344 N   0  0  0  0  0  0  0  0  0  0  0  0
   34.3723   15.7400  -17.4940 O   0  0  0  0  0  0  0  0  0  0  0  0
   36.3032   15.8325  -15.4259 O   0  0  0  0  0  0  0  0  0  0  0  0
   35.7367   18.6077  -14.7166 O   0  0  0  0  0  0  0  0  0  0  0  0
   35.2595   18.1388  -11.9336 O   0  0  0  0  0  0  0  0  0  0  0  0
   33.3516   19.7689  -15.9510 O   0  0  0  0  0  0  0  0  0  0  0  0
   39.8169   20.5565  -14.5775 N   0  0  0  0  0  0  0  0  0  0  0  0
   38.8365   20.7769  -15.5167 C   0  0  0  0  0  0  0  0  0  0  0  0
   37.8476   19.8733  -15.3198 O   0  0  0  0  0  0  0  0  0  0  0  0
   38.8887   21.5574  -16.4320 O   0  0  0  0  0  0  0  0  0  0  0  0
   40.9980   21.2613  -14.4364 C   0  0  0  0  0  0  0  0  0  0  0  0
   42.0020   20.6398  -13.6920 C   0  0  0  0  0  0  0  0  0  0  0  0
   43.2100   21.3027  -13.4767 C   0  0  0  0  0  0  0  0  0  0  0  0
   43.3768   22.5835  -14.0079 C   0  0  0  0  0  0  0  0  0  0  0  0
   42.3665   23.2019  -14.7374 C   0  0  0  0  0  0  0  0  0  0  0  0
   41.1666   22.5367  -14.9556 C   0  0  0  0  0  0  0  0  0  0  0  0
   36.8627   19.8208  -16.4217 N   0  3  0  0  0  0  0  0  0  0  0  0
   37.0111   17.8368  -16.0758 H   0  0  0  0  0  0  0  0  0  0  0  0
   35.8614   17.5811  -17.9444 H   0  0  0  0  0  0  0  0  0  0  0  0
   33.3712   17.1500  -16.3894 H   0  0  0  0  0  0  0  0  0  0  0  0
   34.3580   15.5030  -14.8383 H   0  0  0  0  0  0  0  0  0  0  0  0
   33.9235   17.8544  -14.1201 H   0  0  0  0  0  0  0  0  0  0  0  0
   36.5228   16.8271  -12.8932 H   0  0  0  0  0  0  0  0  0  0  0  0
   34.8978   16.1939  -12.5030 H   0  0  0  0  0  0  0  0  0  0  0  0
   31.8416   21.1103  -17.4588 H   0  0  0  0  0  0  0  0  0  0  0  0
   31.9083   19.8202  -18.6845 H   0  0  0  0  0  0  0  0  0  0  0  0
   33.0994   21.1515  -18.7201 H   0  0  0  0  0  0  0  0  0  0  0  0
   34.3112   18.9415  -18.8436 H   0  0  0  0  0  0  0  0  0  0  0  0
   34.0274   16.0857  -18.3316 H   0  0  0  0  0  0  0  0  0  0  0  0
   36.6694   15.5438  -14.5801 H   0  0  0  0  0  0  0  0  0  0  0  0
   35.5830   17.8716  -11.0625 H   0  0  0  0  0  0  0  0  0  0  0  0
   39.6526   19.8118  -13.9237 H   0  0  0  0  0  0  0  0  0  0  0  0
   41.8557   19.6411  -13.2932 H   0  0  0  0  0  0  0  0  0  0  0  0
   43.9920   20.8318  -12.9138 H   0  0  0  0  0  0  0  0  0  0  0  0
   44.3140   23.1072  -13.8458 H   0  0  0  0  0  0  0  0  0  0  0  0
   42.5058   24.1990  -15.1395 H   0  0  0  0  0  0  0  0  0  0  0  0
   40.3658   23.0242  -15.5014 H   0  0  0  0  0  0  0  0  0  0  0  0
   37.4226   19.7093  -17.2783 H   0  0  0  0  0  0  0  0  0  0  0  0
  1  2  1  0  0  0  0
  1 12  1  0  0  0  0
  1 25  1  0  0  0  0
  1 26  1  1  0  0  0
  2  3  1  0  0  0  0
  2  9  1  0  0  0  0
  2 27  1  6  0  0  0
  3  4  1  0  0  0  0
  3 10  1  0  0  0  0
  3 28  1  1  0  0  0
  4  5  1  0  0  0  0
  4 11  1  0  0  0  0
  4 29  1  1  0  0  0
  5  6  1  0  0  0  0
  5 12  1  0  0  0  0
  5 30  1  1  0  0  0
  6 13  1  0  0  0  0
  6 31  1  0  0  0  0
  6 32  1  0  0  0  0
  7  8  1  0  0  0  0
  7  9  1  0  0  0  0
  7 14  2  0  0  0  0
  8 33  1  0  0  0  0
  8 34  1  0  0  0  0
  8 35  1  0  0  0  0
  9 36  1  0  0  0  0
 10 37  1  0  0  0  0
 11 38  1  0  0  0  0
 13 39  1  0  0  0  0
 15 16  1  0  0  0  0
 15 19  1  0  0  0  0
 15 40  1  0  0  0  0
 16 17  1  0  0  0  0
 16 18  2  0  0  0  0
 17 25  1  0  0  0  0
 19 20  2  0  0  0  0
 19 24  1  0  0  0  0
 20 21  1  0  0  0  0
 20 41  1  0  0  0  0
 21 22  2  0  0  0  0
 21 42  1  0  0  0  0
 22 23  1  0  0  0  0
 22 43  1  0  0  0  0
 23 24  2  0  0  0  0
 23 44  1  0  0  0  0
 24 45  1  0  0  0  0
 25 46  1  0  0  0  0
M  CHG  1  25   1
M  END
$$$$
