ORN
 OpenBabel04091913163D

 22 21  0  0  1  0  0  0  0  0999 V2000
   45.3331   72.9337   15.1275 N   0  3  0  0  0  0  0  0  0  0  0  0
   44.3018   72.5431   16.1464 C   0  0  1  0  0  0  0  0  0  0  0  0
   44.6509   71.1855   16.7952 C   0  0  0  0  0  0  0  0  0  0  0  0
   46.1343   70.8054   16.9936 C   0  0  0  0  0  0  0  0  0  0  0  0
   46.2365   69.2832   17.1728 C   0  0  0  0  0  0  0  0  0  0  0  0
   47.6291   68.7977   17.0552 N   0  3  0  0  0  0  0  0  0  0  0  0
   44.0517   73.6516   17.2004 C   0  0  0  0  0  0  0  0  0  0  0  0
   43.1888   73.4206   18.0702 O   0  0  0  0  0  0  0  0  0  0  0  0
   44.8311   74.6303   17.0021 O   0  0  0  0  0  0  0  0  0  0  0  0
   45.5091   72.2585   14.3783 H   0  0  0  0  0  0  0  0  0  0  0  0
   45.0102   73.8252   14.7282 H   0  0  0  0  0  0  0  0  0  0  0  0
   43.3750   72.4388   15.5838 H   0  0  0  0  0  0  0  0  0  0  0  0
   44.1825   70.4233   16.1499 H   0  0  0  0  0  0  0  0  0  0  0  0
   44.1484   71.0915   17.7587 H   0  0  0  0  0  0  0  0  0  0  0  0
   46.5257   71.3159   17.8841 H   0  0  0  0  0  0  0  0  0  0  0  0
   46.7515   71.1108   16.1452 H   0  0  0  0  0  0  0  0  0  0  0  0
   45.6763   68.7620   16.3954 H   0  0  0  0  0  0  0  0  0  0  0  0
   45.8696   68.9675   18.1592 H   0  0  0  0  0  0  0  0  0  0  0  0
   47.6484   67.7732   17.1635 H   0  0  0  0  0  0  0  0  0  0  0  0
   48.0522   68.9914   16.1359 H   0  0  0  0  0  0  0  0  0  0  0  0
   46.1765   73.2481   15.6277 H   0  0  0  0  0  0  0  0  0  0  0  0
   48.2516   69.1753   17.7779 H   0  0  0  0  0  0  0  0  0  0  0  0
  1  2  1  0  0  0  0
  1 10  1  0  0  0  0
  1 11  1  0  0  0  0
  1 21  1  0  0  0  0
  2  7  1  0  0  0  0
  2  3  1  0  0  0  0
  2 12  1  6  0  0  0
  3  4  1  0  0  0  0
  3 13  1  0  0  0  0
  3 14  1  0  0  0  0
  4  5  1  0  0  0  0
  4 15  1  0  0  0  0
  4 16  1  0  0  0  0
  5  6  1  0  0  0  0
  5 17  1  0  0  0  0
  5 18  1  0  0  0  0
  6 19  1  0  0  0  0
  6 20  1  0  0  0  0
  6 22  1  0  0  0  0
  7  9  2  0  0  0  0
  7  8  1  0  0  0  0
M  CHG  2   1   1   6   1
M  END
$$$$
