OZR
 OpenBabel04091914233D

 39 40  0  0  1  0  0  0  0  0999 V2000
  -20.1686   30.3180   13.4070 C   0  0  1  0  0  0  0  0  0  0  0  0
  -20.9857   31.1284   14.4075 C   0  0  2  0  0  0  0  0  0  0  0  0
  -21.8693   31.9466   13.4729 C   0  0  0  0  0  0  0  0  0  0  0  0
  -21.0827   32.2096   12.2931 O   0  0  0  0  0  0  0  0  0  0  0  0
  -19.9077   31.3761   12.3392 C   0  0  2  0  0  0  0  0  0  0  0  0
  -19.6335   30.7131   11.0259 C   0  0  0  0  0  0  0  0  0  0  0  0
  -18.9410   29.7701   13.8832 O   0  0  0  0  0  0  0  0  0  0  0  0
  -20.1728   32.0276   15.1672 O   0  0  0  0  0  0  0  0  0  0  0  0
  -20.5293   30.5270   10.0674 C   0  0  0  0  0  0  0  0  0  0  0  0
  -20.2025   29.8430    8.7901 C   0  0  0  0  0  0  0  0  0  0  0  0
  -21.3487   29.1261    8.3235 N   0  0  0  0  0  0  0  0  0  0  0  0
  -22.1735   29.6641    7.3667 C   0  0  0  0  0  0  0  0  0  0  0  0
  -23.2519   28.7940    6.7821 C   0  0  0  0  0  0  0  0  0  0  0  0
  -23.2825   27.3784    6.9550 C   0  0  0  0  0  0  0  0  0  0  0  0
  -24.3957   26.7343    6.3309 C   0  0  0  0  0  0  0  0  0  0  0  0
  -25.3713   27.3775    5.5845 C   0  0  0  0  0  0  0  0  0  0  0  0
  -25.2807   28.7739    5.4324 C   0  0  0  0  0  0  0  0  0  0  0  0
  -24.2355   29.4755    6.0220 C   0  0  0  0  0  0  0  0  0  0  0  0
  -26.2824   29.5258    4.6828 N   0  0  0  0  0  0  0  0  0  0  0  0
  -22.4172   26.6875    7.6134 O   0  0  0  0  0  0  0  0  0  0  0  0
  -24.5000   25.3637    6.4797 O   0  0  0  0  0  0  0  0  0  0  0  0
  -22.0534   30.8301    6.9918 O   0  0  0  0  0  0  0  0  0  0  0  0
  -27.1186   28.9171    3.9938 O   0  0  0  0  0  0  0  0  0  0  0  0
  -26.2362   30.7704    4.7721 O   0  0  0  0  0  0  0  0  0  0  0  0
  -20.7998   29.5067   13.0135 H   0  0  0  0  0  0  0  0  0  0  0  0
  -21.5742   30.5310   15.1100 H   0  0  0  0  0  0  0  0  0  0  0  0
  -22.1870   32.9009   13.9074 H   0  0  0  0  0  0  0  0  0  0  0  0
  -22.7637   31.3895   13.1678 H   0  0  0  0  0  0  0  0  0  0  0  0
  -19.0436   32.0042   12.5952 H   0  0  0  0  0  0  0  0  0  0  0  0
  -18.6179   30.3364   10.8708 H   0  0  0  0  0  0  0  0  0  0  0  0
  -19.1335   29.0349   14.4858 H   0  0  0  0  0  0  0  0  0  0  0  0
  -19.5866   31.4900   15.7240 H   0  0  0  0  0  0  0  0  0  0  0  0
  -21.5617   30.9010   10.1937 H   0  0  0  0  0  0  0  0  0  0  0  0
  -19.3782   29.1312    8.9321 H   0  0  0  0  0  0  0  0  0  0  0  0
  -19.9032   30.5903    8.0480 H   0  0  0  0  0  0  0  0  0  0  0  0
  -21.5074   28.1304    8.5462 H   0  0  0  0  0  0  0  0  0  0  0  0
  -26.1707   26.7995    5.1526 H   0  0  0  0  0  0  0  0  0  0  0  0
  -24.1761   30.5521    5.9134 H   0  0  0  0  0  0  0  0  0  0  0  0
  -23.7121   25.1551    7.0337 H   0  0  0  0  0  0  0  0  0  0  0  0
  1  2  1  0  0  0  0
  1  5  1  0  0  0  0
  1  7  1  0  0  0  0
  1 25  1  6  0  0  0
  2  3  1  0  0  0  0
  2  8  1  0  0  0  0
  2 26  1  1  0  0  0
  3  4  1  0  0  0  0
  3 27  1  0  0  0  0
  3 28  1  0  0  0  0
  4  5  1  0  0  0  0
  5  6  1  0  0  0  0
  5 29  1  1  0  0  0
  6  9  2  0  0  0  0
  6 30  1  0  0  0  0
  7 31  1  0  0  0  0
  8 32  1  0  0  0  0
  9 10  1  0  0  0  0
  9 33  1  0  0  0  0
 10 11  1  0  0  0  0
 10 34  1  0  0  0  0
 10 35  1  0  0  0  0
 11 12  1  0  0  0  0
 11 36  1  0  0  0  0
 12 13  1  0  0  0  0
 12 22  2  0  0  0  0
 13 14  2  0  0  0  0
 13 18  1  0  0  0  0
 14 15  1  0  0  0  0
 14 20  1  0  0  0  0
 15 16  2  0  0  0  0
 15 21  1  0  0  0  0
 16 17  1  0  0  0  0
 16 37  1  0  0  0  0
 17 18  2  0  0  0  0
 17 19  1  0  0  0  0
 18 38  1  0  0  0  0
 19 23  2  0  0  0  0
 19 24  2  0  0  0  0
 21 39  1  0  0  0  0
M  END
$$$$
