P7I
 OpenBabel04091914263D

 14 13  0  0  0  0  0  0  0  0999 V2000
   -2.1911  -22.9060   10.8758 N   0  3  0  0  0  0  0  0  0  0  0  0
   -5.4134  -23.4552   13.7933 O   0  0  0  0  0  0  0  0  0  0  0  0
   -5.3159  -20.9273   14.3083 O   0  0  0  0  0  0  0  0  0  0  0  0
   -6.1565  -21.7643   12.0174 O   0  0  0  0  0  0  0  0  0  0  0  0
   -3.5136  -23.0451   11.5704 C   0  0  0  0  0  0  0  0  0  0  0  0
   -3.6385  -21.9636   12.6085 C   0  0  0  0  0  0  0  0  0  0  0  0
   -5.3686  -22.0280   13.2858 P   0  0  0  0  0  0  0  0  0  0  0  0
   -2.0966  -23.6387   10.1681 H   0  0  0  0  0  0  0  0  0  0  0  0
   -2.1498  -21.9889   10.4311 H   0  0  0  0  0  0  0  0  0  0  0  0
   -3.5184  -24.0508   12.0025 H   0  0  0  0  0  0  0  0  0  0  0  0
   -4.2665  -22.9801   10.7778 H   0  0  0  0  0  0  0  0  0  0  0  0
   -3.4805  -20.9721   12.1819 H   0  0  0  0  0  0  0  0  0  0  0  0
   -2.9330  -22.1146   13.4288 H   0  0  0  0  0  0  0  0  0  0  0  0
   -1.4342  -22.9855   11.5669 H   0  0  0  0  0  0  0  0  0  0  0  0
  1  5  1  0  0  0  0
  1  8  1  0  0  0  0
  1  9  1  0  0  0  0
  1 14  1  0  0  0  0
  2  7  2  0  0  0  0
  3  7  1  0  0  0  0
  4  7  1  0  0  0  0
  5  6  1  0  0  0  0
  5 10  1  0  0  0  0
  5 11  1  0  0  0  0
  6  7  1  0  0  0  0
  6 12  1  0  0  0  0
  6 13  1  0  0  0  0
M  CHG  1   1   1
M  END
$$$$
