PAU
 OpenBabel04091911013D

 31 30  0  0  1  0  0  0  0  0999 V2000
    3.7252   13.6992   18.2775 O   0  0  0  0  0  0  0  0  0  0  0  0
    4.5232   12.5356   16.2852 C   0  0  0  0  0  0  0  0  0  0  0  0
    4.3756   13.8830   17.0212 C   0  0  0  0  0  0  0  0  0  0  0  0
    5.3966   11.6033   17.1534 C   0  0  0  0  0  0  0  0  0  0  0  0
    5.2442   12.8000   14.9505 C   0  0  0  0  0  0  0  0  0  0  0  0
    3.1131   11.9317   16.0481 C   0  0  1  0  0  0  0  0  0  0  0  0
    2.3265   12.8107   15.2383 O   0  0  0  0  0  0  0  0  0  0  0  0
    3.1226   10.5196   15.4294 C   0  0  0  0  0  0  0  0  0  0  0  0
    3.3110    9.5134   16.1100 O   0  0  0  0  0  0  0  0  0  0  0  0
    2.9433   10.4959   14.0769 N   0  0  0  0  0  0  0  0  0  0  0  0
    2.7705    9.2962   13.3033 C   0  0  0  0  0  0  0  0  0  0  0  0
    3.5040    9.3950   11.9848 C   0  0  0  0  0  0  0  0  0  0  0  0
    3.0259   10.5103   11.0537 C   0  0  0  0  0  0  0  0  0  0  0  0
    2.3530   11.4432   11.5848 O   0  0  0  0  0  0  0  0  0  0  0  0
    3.3914   10.3767    9.8577 O   0  0  0  0  0  0  0  0  0  0  0  0
    3.6710   14.5668   18.7055 H   0  0  0  0  0  0  0  0  0  0  0  0
    5.3519   14.3445   17.2057 H   0  0  0  0  0  0  0  0  0  0  0  0
    3.7821   14.5967   16.4414 H   0  0  0  0  0  0  0  0  0  0  0  0
    5.5985   10.6489   16.6574 H   0  0  0  0  0  0  0  0  0  0  0  0
    4.9177   11.3889   18.1139 H   0  0  0  0  0  0  0  0  0  0  0  0
    6.3676   12.0658   17.3640 H   0  0  0  0  0  0  0  0  0  0  0  0
    4.6565   13.4635   14.3069 H   0  0  0  0  0  0  0  0  0  0  0  0
    5.4288   11.8715   14.4011 H   0  0  0  0  0  0  0  0  0  0  0  0
    6.2156   13.2809   15.1166 H   0  0  0  0  0  0  0  0  0  0  0  0
    2.5768   11.8169   17.0015 H   0  0  0  0  0  0  0  0  0  0  0  0
    2.1300   13.6048   15.7618 H   0  0  0  0  0  0  0  0  0  0  0  0
    2.6648   11.3599   13.5917 H   0  0  0  0  0  0  0  0  0  0  0  0
    1.6946    9.1421   13.1551 H   0  0  0  0  0  0  0  0  0  0  0  0
    3.1475    8.4412   13.8743 H   0  0  0  0  0  0  0  0  0  0  0  0
    3.4120    8.4373   11.4564 H   0  0  0  0  0  0  0  0  0  0  0  0
    4.5704    9.5648   12.1794 H   0  0  0  0  0  0  0  0  0  0  0  0
  1  3  1  0  0  0  0
  1 16  1  0  0  0  0
  2  3  1  0  0  0  0
  2  4  1  0  0  0  0
  2  5  1  0  0  0  0
  2  6  1  0  0  0  0
  3 17  1  0  0  0  0
  3 18  1  0  0  0  0
  4 19  1  0  0  0  0
  4 20  1  0  0  0  0
  4 21  1  0  0  0  0
  5 22  1  0  0  0  0
  5 23  1  0  0  0  0
  5 24  1  0  0  0  0
  6  7  1  0  0  0  0
  6  8  1  0  0  0  0
  6 25  1  1  0  0  0
  7 26  1  0  0  0  0
  8  9  2  0  0  0  0
  8 10  1  0  0  0  0
 10 11  1  0  0  0  0
 10 27  1  0  0  0  0
 11 12  1  0  0  0  0
 11 28  1  0  0  0  0
 11 29  1  0  0  0  0
 12 13  1  0  0  0  0
 12 30  1  0  0  0  0
 12 31  1  0  0  0  0
 13 14  2  0  0  0  0
 13 15  1  0  0  0  0
M  END
$$$$
