PEQ
 OpenBabel04091912313D

 14 13  0  0  1  0  0  0  0  0999 V2000
  -31.8904    7.1249  -26.9797 C   0  0  0  0  0  0  0  0  0  0  0  0
  -32.7497    7.9446  -26.4793 O   0  0  0  0  0  0  0  0  0  0  0  0
  -32.1461    6.2952  -27.9052 O   0  0  0  0  0  0  0  0  0  0  0  0
  -30.4440    7.2469  -26.4924 C   0  0  1  0  0  0  0  0  0  0  0  0
  -30.2482    8.3315  -25.4494 C   0  0  0  0  0  0  0  0  0  0  0  0
  -30.0244    5.9932  -25.9449 O   0  0  0  0  0  0  0  0  0  0  0  0
  -28.4150    5.6984  -25.9144 P   0  0  0  0  0  0  0  0  0  0  0  0
  -27.9826    6.2055  -24.5323 O   0  0  0  0  0  0  0  0  0  0  0  0
  -27.8095    6.4781  -27.0667 O   0  0  0  0  0  0  0  0  0  0  0  0
  -28.3100    4.1810  -26.0552 O   0  0  0  0  0  0  0  0  0  0  0  0
  -29.8339    7.4985  -27.3725 H   0  0  0  0  0  0  0  0  0  0  0  0
  -29.2051    8.3709  -25.1274 H   0  0  0  0  0  0  0  0  0  0  0  0
  -30.8644    8.1276  -24.5693 H   0  0  0  0  0  0  0  0  0  0  0  0
  -30.5204    9.3084  -25.8575 H   0  0  0  0  0  0  0  0  0  0  0  0
  1  2  2  0  0  0  0
  1  3  1  0  0  0  0
  1  4  1  0  0  0  0
  4  5  1  0  0  0  0
  4  6  1  0  0  0  0
  4 11  1  6  0  0  0
  5 12  1  0  0  0  0
  5 13  1  0  0  0  0
  5 14  1  0  0  0  0
  6  7  1  0  0  0  0
  7  8  2  0  0  0  0
  7  9  1  0  0  0  0
  7 10  1  0  0  0  0
M  END
$$$$
