PFT
 OpenBabel04091913253D

 32 34  0  0  0  0  0  0  0  0999 V2000
   47.3640   72.4171   63.9089 N   0  0  0  0  0  0  0  0  0  0  0  0
   46.9220   72.3794   65.2399 C   0  0  0  0  0  0  0  0  0  0  0  0
   47.9573   73.6581   63.3157 C   0  0  0  0  0  0  0  0  0  0  0  0
   47.3898   71.3022   62.9453 C   0  0  0  0  0  0  0  0  0  0  0  0
   46.4431   71.0150   65.7470 C   0  0  0  0  0  0  0  0  0  0  0  0
   46.9489   73.3238   65.9901 O   0  0  0  0  0  0  0  0  0  0  0  0
   48.3393   73.2377   61.9013 C   0  0  0  0  0  0  0  0  0  0  0  0
   48.0026   71.8787   61.7066 C   0  0  0  0  0  0  0  0  0  0  0  0
   47.3353   70.3280   66.5074 C   0  0  0  0  0  0  0  0  0  0  0  0
   45.1235   70.4522   65.4482 C   0  0  0  0  0  0  0  0  0  0  0  0
   48.9327   73.9193   60.8265 C   0  0  0  0  0  0  0  0  0  0  0  0
   48.2244   71.1757   60.5080 C   0  0  0  0  0  0  0  0  0  0  0  0
   47.1213   68.9598   67.0543 C   0  0  0  0  0  0  0  0  0  0  0  0
   48.5846   70.8055   66.8160 O   0  0  0  0  0  0  0  0  0  0  0  0
   44.7814   69.2238   65.8787 C   0  0  0  0  0  0  0  0  0  0  0  0
   49.1690   73.2132   59.5989 C   0  0  0  0  0  0  0  0  0  0  0  0
   48.8173   71.8500   59.4404 C   0  0  0  0  0  0  0  0  0  0  0  0
   45.7611   68.4358   66.6871 C   0  0  0  0  0  0  0  0  0  0  0  0
   45.4681   67.3191   67.0803 O   0  0  0  0  0  0  0  0  0  0  0  0
   48.8123   73.9924   63.9398 H   0  0  0  0  0  0  0  0  0  0  0  0
   47.2020   74.4670   63.3660 H   0  0  0  0  0  0  0  0  0  0  0  0
   46.3757   70.9544   62.7138 H   0  0  0  0  0  0  0  0  0  0  0  0
   48.0034   70.4624   63.2951 H   0  0  0  0  0  0  0  0  0  0  0  0
   44.3838   71.0112   64.8589 H   0  0  0  0  0  0  0  0  0  0  0  0
   49.2184   74.9622   60.9009 H   0  0  0  0  0  0  0  0  0  0  0  0
   47.9439   70.1272   60.4112 H   0  0  0  0  0  0  0  0  0  0  0  0
   47.2272   68.9658   68.1558 H   0  0  0  0  0  0  0  0  0  0  0  0
   47.8862   68.2590   66.6741 H   0  0  0  0  0  0  0  0  0  0  0  0
   48.6761   70.7695   67.7858 H   0  0  0  0  0  0  0  0  0  0  0  0
   43.8458   68.7133   65.7060 H   0  0  0  0  0  0  0  0  0  0  0  0
   49.6322   73.7240   58.7523 H   0  0  0  0  0  0  0  0  0  0  0  0
   49.0000   71.3188   58.5056 H   0  0  0  0  0  0  0  0  0  0  0  0
  1  2  1  0  0  0  0
  1  3  1  0  0  0  0
  1  4  1  0  0  0  0
  2  5  1  0  0  0  0
  2  6  2  0  0  0  0
  3  7  1  0  0  0  0
  3 20  1  0  0  0  0
  3 21  1  0  0  0  0
  4  8  1  0  0  0  0
  4 22  1  0  0  0  0
  4 23  1  0  0  0  0
  5  9  2  0  0  0  0
  5 10  1  0  0  0  0
  7  8  2  0  0  0  0
  7 11  1  0  0  0  0
  8 12  1  0  0  0  0
  9 13  1  0  0  0  0
  9 14  1  0  0  0  0
 10 15  2  0  0  0  0
 10 24  1  0  0  0  0
 11 16  2  0  0  0  0
 11 25  1  0  0  0  0
 12 17  2  0  0  0  0
 12 26  1  0  0  0  0
 13 18  1  0  0  0  0
 13 27  1  0  0  0  0
 13 28  1  0  0  0  0
 14 29  1  0  0  0  0
 15 18  1  0  0  0  0
 15 30  1  0  0  0  0
 16 17  1  0  0  0  0
 16 31  1  0  0  0  0
 17 32  1  0  0  0  0
 18 19  2  0  0  0  0
M  END
$$$$
