PHE
 OpenBabel04091915463D

 23 23  0  0  1  0  0  0  0  0999 V2000
    5.0809   -8.0513  -16.9669 N   0  3  0  0  0  0  0  0  0  0  0  0
    6.2481   -7.7212  -16.0654 C   0  0  2  0  0  0  0  0  0  0  0  0
    7.5843   -8.3114  -16.5772 C   0  0  0  0  0  0  0  0  0  0  0  0
    8.5204   -8.4237  -15.7604 O   0  0  0  0  0  0  0  0  0  0  0  0
    5.9912   -8.2755  -14.6622 C   0  0  0  0  0  0  0  0  0  0  0  0
    5.0354   -7.4183  -13.8811 C   0  0  0  0  0  0  0  0  0  0  0  0
    3.7014   -7.8027  -13.7228 C   0  0  0  0  0  0  0  0  0  0  0  0
    5.4831   -6.2121  -13.3230 C   0  0  0  0  0  0  0  0  0  0  0  0
    2.8150   -6.9857  -13.0259 C   0  0  0  0  0  0  0  0  0  0  0  0
    4.5942   -5.3904  -12.6399 C   0  0  0  0  0  0  0  0  0  0  0  0
    3.2608   -5.7779  -12.4916 C   0  0  0  0  0  0  0  0  0  0  0  0
    7.4869   -8.6530  -17.7953 O   0  0  0  0  0  0  0  0  0  0  0  0
    4.2010   -7.6524  -16.6645 H   0  0  0  0  0  0  0  0  0  0  0  0
    5.3707   -7.7294  -17.9118 H   0  0  0  0  0  0  0  0  0  0  0  0
    6.3043   -6.6223  -16.0596 H   0  0  0  0  0  0  0  0  0  0  0  0
    6.9223   -8.3262  -14.0814 H   0  0  0  0  0  0  0  0  0  0  0  0
    5.6133   -9.3041  -14.7190 H   0  0  0  0  0  0  0  0  0  0  0  0
    3.3462   -8.7466  -14.1295 H   0  0  0  0  0  0  0  0  0  0  0  0
    6.5292   -5.9149  -13.4214 H   0  0  0  0  0  0  0  0  0  0  0  0
    1.7794   -7.2900  -12.8971 H   0  0  0  0  0  0  0  0  0  0  0  0
    4.9363   -4.4468  -12.2213 H   0  0  0  0  0  0  0  0  0  0  0  0
    2.5684   -5.1379  -11.9490 H   0  0  0  0  0  0  0  0  0  0  0  0
    5.0488   -9.0797  -17.0793 H   0  0  0  0  0  0  0  0  0  0  0  0
  1  2  1  0  0  0  0
  1 13  1  0  0  0  0
  1 14  1  0  0  0  0
  1 23  1  0  0  0  0
  2  3  1  0  0  0  0
  2  5  1  0  0  0  0
  2 15  1  1  0  0  0
  3  4  2  0  0  0  0
  3 12  1  0  0  0  0
  5  6  1  0  0  0  0
  5 16  1  0  0  0  0
  5 17  1  0  0  0  0
  6  7  2  0  0  0  0
  6  8  1  0  0  0  0
  7  9  1  0  0  0  0
  7 18  1  0  0  0  0
  8 10  2  0  0  0  0
  8 19  1  0  0  0  0
  9 11  2  0  0  0  0
  9 20  1  0  0  0  0
 10 11  1  0  0  0  0
 10 21  1  0  0  0  0
 11 22  1  0  0  0  0
M  CHG  1   1   1
M  END
$$$$
