PHT
 OpenBabel04091911093D

 16 16  0  0  0  0  0  0  0  0999 V2000
  -22.0343  -14.0298   22.7740 O   0  0  0  0  0  0  0  0  0  0  0  0
  -23.5422  -14.5092   21.1554 O   0  0  0  0  0  0  0  0  0  0  0  0
  -21.1327  -16.8352   23.6507 C   0  0  0  0  0  0  0  0  0  0  0  0
  -20.4890  -17.0770   24.7327 O   0  0  0  0  0  0  0  0  0  0  0  0
  -20.6189  -16.8034   22.4890 O   0  0  0  0  0  0  0  0  0  0  0  0
  -22.9206  -14.7745   22.2482 C   0  0  0  0  0  0  0  0  0  0  0  0
  -23.2543  -17.8211   24.5781 C   0  0  0  0  0  0  0  0  0  0  0  0
  -22.6426  -16.8321   23.7650 C   0  0  0  0  0  0  0  0  0  0  0  0
  -23.4704  -15.9344   23.0583 C   0  0  0  0  0  0  0  0  0  0  0  0
  -24.8732  -16.0888   23.1448 C   0  0  0  0  0  0  0  0  0  0  0  0
  -25.4531  -17.0838   23.9396 C   0  0  0  0  0  0  0  0  0  0  0  0
  -24.6412  -17.9445   24.6666 C   0  0  0  0  0  0  0  0  0  0  0  0
  -22.6084  -18.5009   25.1370 H   0  0  0  0  0  0  0  0  0  0  0  0
  -25.5043  -15.4045   22.5785 H   0  0  0  0  0  0  0  0  0  0  0  0
  -26.5291  -17.1742   23.9929 H   0  0  0  0  0  0  0  0  0  0  0  0
  -25.0776  -18.7157   25.2951 H   0  0  0  0  0  0  0  0  0  0  0  0
  1  6  2  0  0  0  0
  2  6  1  0  0  0  0
  3  4  2  0  0  0  0
  3  5  1  0  0  0  0
  3  8  1  0  0  0  0
  6  9  1  0  0  0  0
  7  8  2  0  0  0  0
  7 12  1  0  0  0  0
  7 13  1  0  0  0  0
  8  9  1  0  0  0  0
  9 10  2  0  0  0  0
 10 11  1  0  0  0  0
 10 14  1  0  0  0  0
 11 12  2  0  0  0  0
 11 15  1  0  0  0  0
 12 16  1  0  0  0  0
M  END
$$$$
