PLU
 OpenBabel04091910563D

 23 22  0  0  1  0  0  0  0  0999 V2000
   34.7264   -2.9482   39.4483 C   0  0  2  0  0  0  0  0  0  0  0  0
   33.6552   -2.8243   40.5210 C   0  0  0  0  0  0  0  0  0  0  0  0
   32.4539   -1.9761   40.0881 C   0  0  0  0  0  0  0  0  0  0  0  0
   31.5429   -1.7277   41.2831 C   0  0  0  0  0  0  0  0  0  0  0  0
   32.8568   -0.6466   39.4501 C   0  0  0  0  0  0  0  0  0  0  0  0
   34.1299   -3.4583   38.1661 N   0  3  0  0  0  0  0  0  0  0  0  0
   36.1438   -4.1742   39.9131 P   0  0  0  0  0  0  0  0  0  0  0  0
   35.2901   -5.4270   40.0719 O   0  0  0  0  0  0  0  0  0  0  0  0
   36.7630   -3.5353   41.1326 O   0  0  0  0  0  0  0  0  0  0  0  0
   36.8472   -4.0879   38.5636 O   0  0  0  0  0  0  0  0  0  0  0  0
   35.2285   -2.0040   39.2290 H   0  0  0  0  0  0  0  0  0  0  0  0
   34.1278   -2.4003   41.4171 H   0  0  0  0  0  0  0  0  0  0  0  0
   33.3104   -3.8267   40.8068 H   0  0  0  0  0  0  0  0  0  0  0  0
   31.8800   -2.5467   39.3417 H   0  0  0  0  0  0  0  0  0  0  0  0
   30.6845   -1.1149   40.9881 H   0  0  0  0  0  0  0  0  0  0  0  0
   32.0792   -1.2050   42.0836 H   0  0  0  0  0  0  0  0  0  0  0  0
   31.1630   -2.6750   41.6867 H   0  0  0  0  0  0  0  0  0  0  0  0
   33.5027   -0.7832   38.5753 H   0  0  0  0  0  0  0  0  0  0  0  0
   33.3893   -0.0043   40.1591 H   0  0  0  0  0  0  0  0  0  0  0  0
   31.9732   -0.1103   39.0925 H   0  0  0  0  0  0  0  0  0  0  0  0
   34.9899   -3.6047   37.5966 H   0  0  0  0  0  0  0  0  0  0  0  0
   33.8674   -4.4298   38.4057 H   0  0  0  0  0  0  0  0  0  0  0  0
   33.4235   -2.8873   37.7444 H   0  0  0  0  0  0  0  0  0  0  0  0
  1  2  1  0  0  0  0
  1  6  1  0  0  0  0
  1  7  1  0  0  0  0
  1 11  1  6  0  0  0
  2  3  1  0  0  0  0
  2 12  1  0  0  0  0
  2 13  1  0  0  0  0
  3  4  1  0  0  0  0
  3  5  1  0  0  0  0
  3 14  1  0  0  0  0
  4 15  1  0  0  0  0
  4 16  1  0  0  0  0
  4 17  1  0  0  0  0
  5 18  1  0  0  0  0
  5 19  1  0  0  0  0
  5 20  1  0  0  0  0
  6 21  1  0  0  0  0
  6 22  1  0  0  0  0
  6 23  1  0  0  0  0
  7  8  2  0  0  0  0
  7  9  1  0  0  0  0
  7 10  1  0  0  0  0
M  CHG  1   6   1
M  END
$$$$
