PMX
 OpenBabel04091914253D

 35 35  0  0  1  0  0  0  0  0999 V2000
   17.1657    5.8933   10.6921 C   0  0  0  0  0  0  0  0  0  0  0  0
   17.7506    5.9503   13.2199 N   0  0  0  0  0  0  0  0  0  0  0  0
   17.2419    4.6314   10.7760 O   0  0  0  0  0  0  0  0  0  0  0  0
   18.8107   12.6181   12.2449 Cl  0  0  0  0  0  0  0  0  0  0  0  0
   17.6864    6.7120   11.9476 C   0  0  1  0  0  0  0  0  0  0  0  0
   19.0253    7.4173   11.6606 C   0  0  0  0  0  0  0  0  0  0  0  0
   19.3408    8.6408   12.5444 C   0  0  0  0  0  0  0  0  0  0  0  0
   15.4996    6.1579   13.6136 O   0  0  0  0  0  0  0  0  0  0  0  0
   20.2781    9.7088   14.5689 C   0  0  0  0  0  0  0  0  0  0  0  0
   15.5712    4.2709   15.5239 C   0  0  0  0  0  0  0  0  0  0  0  0
   16.6946    4.6600   14.9539 C   0  0  0  0  0  0  0  0  0  0  0  0
   16.5790    5.6386   13.8592 C   0  0  0  0  0  0  0  0  0  0  0  0
   19.9142   10.9657   14.0849 C   0  0  0  0  0  0  0  0  0  0  0  0
   20.2022   12.0833   14.8368 O   0  0  0  0  0  0  0  0  0  0  0  0
   16.7576    3.0048   17.1416 O   0  0  0  0  0  0  0  0  0  0  0  0
   15.6797    3.3205   16.6375 C   0  0  0  0  0  0  0  0  0  0  0  0
   19.2682   11.0635   12.8454 C   0  0  0  0  0  0  0  0  0  0  0  0
   14.4758    2.9058   17.0800 O   0  0  0  0  0  0  0  0  0  0  0  0
   14.5398    2.1598   18.3019 C   0  0  0  0  0  0  0  0  0  0  0  0
   18.9853    9.9206   12.0800 C   0  0  0  0  0  0  0  0  0  0  0  0
   19.9917    8.5512   13.8006 C   0  0  0  0  0  0  0  0  0  0  0  0
   16.7436    6.6011    9.7246 O   0  0  0  0  0  0  0  0  0  0  0  0
   18.6230    5.5024   13.4574 H   0  0  0  0  0  0  0  0  0  0  0  0
   16.9244    7.4814   12.0992 H   0  0  0  0  0  0  0  0  0  0  0  0
   19.0279    7.7460   10.6111 H   0  0  0  0  0  0  0  0  0  0  0  0
   19.8548    6.7048   11.7526 H   0  0  0  0  0  0  0  0  0  0  0  0
   20.7805    9.6190   15.5380 H   0  0  0  0  0  0  0  0  0  0  0  0
   14.5969    4.6518   15.2157 H   0  0  0  0  0  0  0  0  0  0  0  0
   17.6788    4.2815   15.2558 H   0  0  0  0  0  0  0  0  0  0  0  0
   19.8772   12.8715   14.3569 H   0  0  0  0  0  0  0  0  0  0  0  0
   13.5379    1.8077   18.5277 H   0  0  0  0  0  0  0  0  0  0  0  0
   14.8819    2.8044   19.1194 H   0  0  0  0  0  0  0  0  0  0  0  0
   15.2069    1.2854   18.2174 H   0  0  0  0  0  0  0  0  0  0  0  0
   18.4862   10.0207   11.1135 H   0  0  0  0  0  0  0  0  0  0  0  0
   20.2861    7.5780   14.1924 H   0  0  0  0  0  0  0  0  0  0  0  0
  1  3  2  0  0  0  0
  1  5  1  0  0  0  0
  1 22  1  0  0  0  0
  2  5  1  0  0  0  0
  2 12  1  0  0  0  0
  2 23  1  0  0  0  0
  4 17  1  0  0  0  0
  5  6  1  0  0  0  0
  5 24  1  1  0  0  0
  6  7  1  0  0  0  0
  6 25  1  0  0  0  0
  6 26  1  0  0  0  0
  7 20  2  0  0  0  0
  7 21  1  0  0  0  0
  8 12  2  0  0  0  0
  9 13  1  0  0  0  0
  9 21  2  0  0  0  0
  9 27  1  0  0  0  0
 10 11  2  0  0  0  0
 10 16  1  0  0  0  0
 10 28  1  0  0  0  0
 11 12  1  0  0  0  0
 11 29  1  0  0  0  0
 13 14  1  0  0  0  0
 13 17  2  0  0  0  0
 14 30  1  0  0  0  0
 15 16  2  0  0  0  0
 16 18  1  0  0  0  0
 17 20  1  0  0  0  0
 18 19  1  0  0  0  0
 19 31  1  0  0  0  0
 19 32  1  0  0  0  0
 19 33  1  0  0  0  0
 20 34  1  0  0  0  0
 21 35  1  0  0  0  0
M  END
$$$$
