PNT
 OpenBabel04091912503D

 51 52  0  0  0  0  0  0  0  0999 V2000
   -9.6197   21.1921   49.9764 C   0  0  0  0  0  0  0  0  0  0  0  0
   -9.6218   19.9571   49.3381 C   0  0  0  0  0  0  0  0  0  0  0  0
   -9.1421   18.8211   50.0044 C   0  0  0  0  0  0  0  0  0  0  0  0
   -8.6625   18.8968   51.3244 C   0  0  0  0  0  0  0  0  0  0  0  0
   -8.6692   20.1556   51.9477 C   0  0  0  0  0  0  0  0  0  0  0  0
   -9.1322   21.2887   51.2766 C   0  0  0  0  0  0  0  0  0  0  0  0
  -10.6273   22.3529   48.1467 C   0  0  0  0  0  0  0  0  0  0  0  0
  -11.2941   23.7056   47.9309 C   0  0  0  0  0  0  0  0  0  0  0  0
   -8.1628   17.7000   52.0380 C   0  0  0  0  0  0  0  0  0  0  0  0
  -12.5649   23.8346   48.7723 C   0  0  0  0  0  0  0  0  0  0  0  0
  -13.3690   25.6338   51.5901 C   0  0  0  0  0  0  0  0  0  0  0  0
  -14.5950   26.2849   51.5221 C   0  0  0  0  0  0  0  0  0  0  0  0
  -15.6349   25.9119   52.3794 C   0  0  0  0  0  0  0  0  0  0  0  0
  -15.4628   24.8900   53.3281 C   0  0  0  0  0  0  0  0  0  0  0  0
  -14.2082   24.2628   53.4052 C   0  0  0  0  0  0  0  0  0  0  0  0
  -13.1731   24.6350   52.5441 C   0  0  0  0  0  0  0  0  0  0  0  0
  -12.5557   26.3112   49.4440 C   0  0  0  0  0  0  0  0  0  0  0  0
  -13.2132   25.2101   48.6027 C   0  0  0  0  0  0  0  0  0  0  0  0
  -16.5673   24.4816   54.2078 C   0  0  0  0  0  0  0  0  0  0  0  0
  -10.0683   22.3671   49.4589 O   0  0  0  0  0  0  0  0  0  0  0  0
  -12.2948   25.9084   50.7948 O   0  0  0  0  0  0  0  0  0  0  0  0
   -8.5832   16.4986   51.7041 N   0  0  0  0  0  0  0  0  0  0  0  0
   -7.3026   17.8310   53.0292 N   0  0  0  0  0  0  0  0  0  0  0  0
  -17.4184   25.3814   54.6582 N   0  0  0  0  0  0  0  0  0  0  0  0
  -16.7102   23.2167   54.5416 N   0  0  0  0  0  0  0  0  0  0  0  0
   -9.9822   19.8433   48.3196 H   0  0  0  0  0  0  0  0  0  0  0  0
   -9.1487   17.8839   49.4514 H   0  0  0  0  0  0  0  0  0  0  0  0
   -8.3280   20.2919   52.9700 H   0  0  0  0  0  0  0  0  0  0  0  0
   -9.1150   22.2587   51.7720 H   0  0  0  0  0  0  0  0  0  0  0  0
   -9.8283   22.2147   47.4103 H   0  0  0  0  0  0  0  0  0  0  0  0
  -11.3753   21.5582   48.0376 H   0  0  0  0  0  0  0  0  0  0  0  0
  -11.5495   23.8233   46.8727 H   0  0  0  0  0  0  0  0  0  0  0  0
  -10.5933   24.5024   48.2051 H   0  0  0  0  0  0  0  0  0  0  0  0
  -12.3449   23.6283   49.8253 H   0  0  0  0  0  0  0  0  0  0  0  0
  -13.2823   23.0656   48.4607 H   0  0  0  0  0  0  0  0  0  0  0  0
  -14.7664   27.0879   50.8115 H   0  0  0  0  0  0  0  0  0  0  0  0
  -16.5865   26.4289   52.2713 H   0  0  0  0  0  0  0  0  0  0  0  0
  -14.0078   23.4867   54.1404 H   0  0  0  0  0  0  0  0  0  0  0  0
  -12.2087   24.1325   52.6020 H   0  0  0  0  0  0  0  0  0  0  0  0
  -13.1378   27.2388   49.4076 H   0  0  0  0  0  0  0  0  0  0  0  0
  -11.5819   26.5585   49.0064 H   0  0  0  0  0  0  0  0  0  0  0  0
  -14.2684   25.1250   48.8853 H   0  0  0  0  0  0  0  0  0  0  0  0
  -13.2016   25.5054   47.5464 H   0  0  0  0  0  0  0  0  0  0  0  0
   -8.2559   15.6578   52.1713 H   0  0  0  0  0  0  0  0  0  0  0  0
   -6.9266   18.7387   53.2788 H   0  0  0  0  0  0  0  0  0  0  0  0
   -6.9495   17.0406   53.5514 H   0  0  0  0  0  0  0  0  0  0  0  0
  -18.2020   25.1462   55.2546 H   0  0  0  0  0  0  0  0  0  0  0  0
  -16.0757   22.5185   54.1715 H   0  0  0  0  0  0  0  0  0  0  0  0
  -17.4590   22.8941   55.1409 H   0  0  0  0  0  0  0  0  0  0  0  0
   -9.2620   16.3669   50.9643 H   0  0  0  0  0  0  0  0  0  0  0  0
  -17.3002   26.3640   54.4304 H   0  0  0  0  0  0  0  0  0  0  0  0
  1  2  2  0  0  0  0
  1  6  1  0  0  0  0
  1 20  1  0  0  0  0
  2  3  1  0  0  0  0
  2 26  1  0  0  0  0
  3  4  2  0  0  0  0
  3 27  1  0  0  0  0
  4  5  1  0  0  0  0
  4  9  1  0  0  0  0
  5  6  2  0  0  0  0
  5 28  1  0  0  0  0
  6 29  1  0  0  0  0
  7  8  1  0  0  0  0
  7 20  1  0  0  0  0
  7 30  1  0  0  0  0
  7 31  1  0  0  0  0
  8 10  1  0  0  0  0
  8 32  1  0  0  0  0
  8 33  1  0  0  0  0
  9 22  2  0  0  0  0
  9 23  1  0  0  0  0
 10 18  1  0  0  0  0
 10 34  1  0  0  0  0
 10 35  1  0  0  0  0
 11 12  2  0  0  0  0
 11 16  1  0  0  0  0
 11 21  1  0  0  0  0
 12 13  1  0  0  0  0
 12 36  1  0  0  0  0
 13 14  2  0  0  0  0
 13 37  1  0  0  0  0
 14 15  1  0  0  0  0
 14 19  1  0  0  0  0
 15 16  2  0  0  0  0
 15 38  1  0  0  0  0
 16 39  1  0  0  0  0
 17 18  1  0  0  0  0
 17 21  1  0  0  0  0
 17 40  1  0  0  0  0
 17 41  1  0  0  0  0
 18 42  1  0  0  0  0
 18 43  1  0  0  0  0
 19 24  2  0  0  0  0
 19 25  1  0  0  0  0
 22 44  1  0  0  0  0
 22 50  1  0  0  0  0
 23 45  1  0  0  0  0
 23 46  1  0  0  0  0
 24 47  1  0  0  0  0
 24 51  1  0  0  0  0
 25 48  1  0  0  0  0
 25 49  1  0  0  0  0
M  END
$$$$
