PPF
 OpenBabel04091915263D

  7  6  0  0  0  0  0  0  0  0999 V2000
   -1.2660   33.1009   21.3451 C   0  0  0  0  0  0  0  0  0  0  0  0
    0.9390   32.1472   19.7438 O   0  0  0  0  0  0  0  0  0  0  0  0
   -0.9438   30.4381   20.2952 O   0  0  0  0  0  0  0  0  0  0  0  0
    0.7034   31.1917   22.1544 O   0  0  0  0  0  0  0  0  0  0  0  0
   -0.9004   34.3169   21.0749 O   0  0  0  0  0  0  0  0  0  0  0  0
   -2.3734   32.8203   21.9399 O   0  0  0  0  0  0  0  0  0  0  0  0
    0.0324   31.4957   20.7979 P   0  0  0  0  0  0  0  0  0  0  0  0
  1  5  2  0  0  0  0
  1  6  1  0  0  0  0
  1  7  1  0  0  0  0
  2  7  2  0  0  0  0
  3  7  1  0  0  0  0
  4  7  1  0  0  0  0
M  END
$$$$
