PRO
 OpenBabel04091913123D

 17 17  0  0  1  0  0  0  0  0999 V2000
   23.2298   18.8023   16.7332 N   0  3  0  0  0  0  0  0  0  0  0  0
   23.4550   18.5633   18.2293 C   0  0  2  0  0  0  0  0  0  0  0  0
   22.9890   17.1605   18.6895 C   0  0  0  0  0  0  0  0  0  0  0  0
   23.1129   16.8993   19.9065 O   0  0  0  0  0  0  0  0  0  0  0  0
   22.6430   19.6882   18.8353 C   0  0  0  0  0  0  0  0  0  0  0  0
   22.7455   20.8440   17.8433 C   0  0  0  0  0  0  0  0  0  0  0  0
   23.1932   20.2522   16.5152 C   0  0  0  0  0  0  0  0  0  0  0  0
   22.5284   16.4922   17.7075 O   0  0  0  0  0  0  0  0  0  0  0  0
   23.9164   18.2515   16.2030 H   0  0  0  0  0  0  0  0  0  0  0  0
   24.5284   18.6920   18.3960 H   0  0  0  0  0  0  0  0  0  0  0  0
   23.0146   19.9738   19.8243 H   0  0  0  0  0  0  0  0  0  0  0  0
   21.5915   19.3968   18.9582 H   0  0  0  0  0  0  0  0  0  0  0  0
   23.4712   21.5897   18.1882 H   0  0  0  0  0  0  0  0  0  0  0  0
   21.7831   21.3586   17.7417 H   0  0  0  0  0  0  0  0  0  0  0  0
   22.5172   20.4697   15.6846 H   0  0  0  0  0  0  0  0  0  0  0  0
   24.2110   20.5688   16.2620 H   0  0  0  0  0  0  0  0  0  0  0  0
   22.3405   18.2946   16.5576 H   0  0  0  0  0  0  0  0  0  0  0  0
  1  2  1  0  0  0  0
  1  7  1  0  0  0  0
  1  9  1  0  0  0  0
  1 17  1  0  0  0  0
  2  3  1  0  0  0  0
  2  5  1  0  0  0  0
  2 10  1  1  0  0  0
  3  4  2  0  0  0  0
  3  8  1  0  0  0  0
  5  6  1  0  0  0  0
  5 11  1  0  0  0  0
  5 12  1  0  0  0  0
  6  7  1  0  0  0  0
  6 13  1  0  0  0  0
  6 14  1  0  0  0  0
  7 15  1  0  0  0  0
  7 16  1  0  0  0  0
M  CHG  1   1   1
M  END
$$$$
