PYU
 OpenBabel04091911433D

 25 26  0  0  0  0  0  0  0  0999 V2000
   17.3211   -3.7796   51.3186 N   0  3  0  0  0  0  0  0  0  0  0  0
   15.1043   -1.4838   50.6720 C   0  0  0  0  0  0  0  0  0  0  0  0
   16.5743    0.5874   49.4944 C   0  0  0  0  0  0  0  0  0  0  0  0
   14.5819   -0.1914   50.6419 C   0  0  0  0  0  0  0  0  0  0  0  0
   17.8476   -5.0603   51.3902 C   0  0  0  0  0  0  0  0  0  0  0  0
   17.3042   -3.2815   52.6120 C   0  0  0  0  0  0  0  0  0  0  0  0
   18.1403   -5.3636   52.7010 C   0  0  0  0  0  0  0  0  0  0  0  0
   17.7916   -4.2375   53.4758 C   0  0  0  0  0  0  0  0  0  0  0  0
   16.3627   -1.7481   50.1223 C   0  0  0  0  0  0  0  0  0  0  0  0
   15.3216    0.8306   50.0527 C   0  0  0  0  0  0  0  0  0  0  0  0
   17.0948   -0.7078   49.5357 C   0  0  0  0  0  0  0  0  0  0  0  0
   16.9104   -3.1203   50.1386 C   0  0  0  0  0  0  0  0  0  0  0  0
   17.0224   -3.7280   49.0732 O   0  0  0  0  0  0  0  0  0  0  0  0
   14.7746    2.0803   50.0531 O   0  0  0  0  0  0  0  0  0  0  0  0
   18.3426   -0.9513   49.0346 O   0  0  0  0  0  0  0  0  0  0  0  0
   14.3857   -2.4938   51.2469 O   0  0  0  0  0  0  0  0  0  0  0  0
   17.1413    1.3947   49.0438 H   0  0  0  0  0  0  0  0  0  0  0  0
   13.6096    0.0379   51.0663 H   0  0  0  0  0  0  0  0  0  0  0  0
   17.9649   -5.6413   50.4841 H   0  0  0  0  0  0  0  0  0  0  0  0
   16.9330   -2.2868   52.8161 H   0  0  0  0  0  0  0  0  0  0  0  0
   18.5605   -6.2960   53.0555 H   0  0  0  0  0  0  0  0  0  0  0  0
   17.8864   -4.1310   54.5485 H   0  0  0  0  0  0  0  0  0  0  0  0
   15.3818    2.7004   49.6155 H   0  0  0  0  0  0  0  0  0  0  0  0
   18.6760   -0.1659   48.5709 H   0  0  0  0  0  0  0  0  0  0  0  0
   13.5242   -2.1527   51.5436 H   0  0  0  0  0  0  0  0  0  0  0  0
  1  5  1  0  0  0  0
  1  6  1  0  0  0  0
  1 12  1  0  0  0  0
  2  4  2  0  0  0  0
  2  9  1  0  0  0  0
  2 16  1  0  0  0  0
  3 10  2  0  0  0  0
  3 11  1  0  0  0  0
  3 17  1  0  0  0  0
  4 10  1  0  0  0  0
  4 18  1  0  0  0  0
  5  7  2  0  0  0  0
  5 19  1  0  0  0  0
  6  8  2  0  0  0  0
  6 20  1  0  0  0  0
  7  8  1  0  0  0  0
  7 21  1  0  0  0  0
  8 22  1  0  0  0  0
  9 11  2  0  0  0  0
  9 12  1  0  0  0  0
 10 14  1  0  0  0  0
 11 15  1  0  0  0  0
 12 13  2  0  0  0  0
 14 23  1  0  0  0  0
 15 24  1  0  0  0  0
 16 25  1  0  0  0  0
M  CHG  1   1   1
M  END
$$$$
