QMQ
 OpenBabel04091916453D

 74 78  0  0  0  0  0  0  0  0999 V2000
   -9.4426   12.7667   -2.3979 C   0  0  0  0  0  0  0  0  0  0  0  0
   -8.8129   13.0188   -3.7595 N   0  0  0  0  0  0  0  0  0  0  0  0
   -8.1256   11.7684   -4.2754 C   0  0  0  0  0  0  0  0  0  0  0  0
   -9.6482   13.7702   -4.6777 C   0  0  0  0  0  0  0  0  0  0  0  0
   -9.5078   13.6540   -6.0091 C   0  0  0  0  0  0  0  0  0  0  0  0
  -10.0885   14.6380   -6.9732 C   0  0  0  0  0  0  0  0  0  0  0  0
  -10.5069   14.8434   -4.1969 C   0  0  0  0  0  0  0  0  0  0  0  0
  -11.0451   15.7845   -4.9867 C   0  0  0  0  0  0  0  0  0  0  0  0
  -10.5675   15.9135   -6.3410 N   0  0  0  0  0  0  0  0  0  0  0  0
  -11.4494   16.7891   -7.2209 C   0  0  0  0  0  0  0  0  0  0  0  0
  -12.5254   16.1360   -8.0393 C   0  0  0  0  0  0  0  0  0  0  0  0
  -12.7521   16.6005   -9.3465 C   0  0  0  0  0  0  0  0  0  0  0  0
  -13.7519   16.0416  -10.1383 C   0  0  0  0  0  0  0  0  0  0  0  0
  -13.3467   15.1231   -7.5295 C   0  0  0  0  0  0  0  0  0  0  0  0
  -14.3382   14.5562   -8.3252 C   0  0  0  0  0  0  0  0  0  0  0  0
  -14.5473   15.0132   -9.6302 C   0  0  0  0  0  0  0  0  0  0  0  0
  -15.5668   14.3411  -10.5109 C   0  0  0  0  0  0  0  0  0  0  0  0
  -15.0548   12.9521  -10.8790 C   0  0  0  0  0  0  0  0  0  0  0  0
  -15.6859   12.4263  -12.1587 C   0  0  0  0  0  0  0  0  0  0  0  0
  -15.2034   10.9983  -12.4178 C   0  0  0  0  0  0  0  0  0  0  0  0
  -16.2774   10.1575  -13.0433 C   0  0  0  0  0  0  0  0  0  0  0  0
  -16.6652   10.3632  -14.3710 C   0  0  0  0  0  0  0  0  0  0  0  0
  -17.6706    9.5802  -14.9350 C   0  0  0  0  0  0  0  0  0  0  0  0
  -16.9173    9.1730  -12.2813 C   0  0  0  0  0  0  0  0  0  0  0  0
  -17.9266    8.3983  -12.8404 C   0  0  0  0  0  0  0  0  0  0  0  0
  -18.3100    8.5916  -14.1756 C   0  0  0  0  0  0  0  0  0  0  0  0
  -19.3697    7.7102  -14.7977 C   0  0  0  0  0  0  0  0  0  0  0  0
  -18.8897    6.4014  -15.1847 N   0  3  0  0  0  0  0  0  0  0  0  0
  -17.6629    5.8380  -14.9542 C   0  0  0  0  0  0  0  0  0  0  0  0
  -17.5769    4.6107  -15.4197 N   0  0  0  0  0  0  0  0  0  0  0  0
  -18.8178    4.3676  -15.9905 C   0  0  0  0  0  0  0  0  0  0  0  0
  -19.6415    5.4722  -15.8554 C   0  0  0  0  0  0  0  0  0  0  0  0
  -20.9069    5.5911  -16.2972 N   0  0  0  0  0  0  0  0  0  0  0  0
  -21.2992    4.4548  -16.9218 C   0  0  0  0  0  0  0  0  0  0  0  0
  -20.6024    3.3116  -17.1183 N   0  0  0  0  0  0  0  0  0  0  0  0
  -19.3299    3.2565  -16.6371 C   0  0  0  0  0  0  0  0  0  0  0  0
  -18.5828    2.1075  -16.7913 N   0  0  0  0  0  0  0  0  0  0  0  0
   -8.9083   11.9514   -1.9039 H   0  0  0  0  0  0  0  0  0  0  0  0
  -10.5053   12.5205   -2.5050 H   0  0  0  0  0  0  0  0  0  0  0  0
   -9.3071   13.6793   -1.8082 H   0  0  0  0  0  0  0  0  0  0  0  0
   -7.8258   11.8734   -5.3188 H   0  0  0  0  0  0  0  0  0  0  0  0
   -8.7655   10.8953   -4.1304 H   0  0  0  0  0  0  0  0  0  0  0  0
   -7.1975   11.6739   -3.7017 H   0  0  0  0  0  0  0  0  0  0  0  0
   -8.9203   12.8966   -6.5113 H   0  0  0  0  0  0  0  0  0  0  0  0
  -10.8756   14.1686   -7.5729 H   0  0  0  0  0  0  0  0  0  0  0  0
   -9.2905   14.9531   -7.6563 H   0  0  0  0  0  0  0  0  0  0  0  0
  -10.7576   14.8888   -3.1398 H   0  0  0  0  0  0  0  0  0  0  0  0
  -11.6974   16.5444   -4.5438 H   0  0  0  0  0  0  0  0  0  0  0  0
  -10.7310   17.2604   -7.9053 H   0  0  0  0  0  0  0  0  0  0  0  0
  -11.8761   17.5869   -6.6018 H   0  0  0  0  0  0  0  0  0  0  0  0
  -12.1595   17.4071   -9.7797 H   0  0  0  0  0  0  0  0  0  0  0  0
  -13.9045   16.4028  -11.1557 H   0  0  0  0  0  0  0  0  0  0  0  0
  -13.2308   14.7402   -6.5211 H   0  0  0  0  0  0  0  0  0  0  0  0
  -14.9495   13.7441   -7.9339 H   0  0  0  0  0  0  0  0  0  0  0  0
  -15.7559   14.9473  -11.4043 H   0  0  0  0  0  0  0  0  0  0  0  0
  -16.5212   14.2699   -9.9737 H   0  0  0  0  0  0  0  0  0  0  0  0
  -15.2746   12.2663  -10.0495 H   0  0  0  0  0  0  0  0  0  0  0  0
  -13.9638   12.9532  -11.0031 H   0  0  0  0  0  0  0  0  0  0  0  0
  -15.3991   13.0658  -13.0040 H   0  0  0  0  0  0  0  0  0  0  0  0
  -16.7780   12.4808  -12.0741 H   0  0  0  0  0  0  0  0  0  0  0  0
  -14.8842   10.5228  -11.4813 H   0  0  0  0  0  0  0  0  0  0  0  0
  -14.3155   11.0053  -13.0615 H   0  0  0  0  0  0  0  0  0  0  0  0
  -16.1869   11.1332  -14.9730 H   0  0  0  0  0  0  0  0  0  0  0  0
  -17.9488    9.7471  -15.9751 H   0  0  0  0  0  0  0  0  0  0  0  0
  -16.6294    9.0004  -11.2460 H   0  0  0  0  0  0  0  0  0  0  0  0
  -18.3973    7.6248  -12.2358 H   0  0  0  0  0  0  0  0  0  0  0  0
  -19.7834    8.1920  -15.6889 H   0  0  0  0  0  0  0  0  0  0  0  0
  -20.1872    7.5643  -14.0799 H   0  0  0  0  0  0  0  0  0  0  0  0
  -16.8541    6.3431  -14.4422 H   0  0  0  0  0  0  0  0  0  0  0  0
  -22.3119    4.4561  -17.3151 H   0  0  0  0  0  0  0  0  0  0  0  0
  -18.9357    1.3566  -17.3632 H   0  0  0  0  0  0  0  0  0  0  0  0
  -17.6145    2.1519  -16.5005 H   0  0  0  0  0  0  0  0  0  0  0  0
   -8.0122   13.6331   -3.5400 H   0  0  0  0  0  0  0  0  0  0  0  0
   -9.7234   16.4884   -6.2706 H   0  0  0  0  0  0  0  0  0  0  0  0
  1  2  1  0  0  0  0
  1 38  1  0  0  0  0
  1 39  1  0  0  0  0
  1 40  1  0  0  0  0
  2  3  1  0  0  0  0
  2  4  1  0  0  0  0
  2 73  1  0  0  0  0
  3 41  1  0  0  0  0
  3 42  1  0  0  0  0
  3 43  1  0  0  0  0
  4  5  2  0  0  0  0
  4  7  1  0  0  0  0
  5  6  1  0  0  0  0
  5 44  1  0  0  0  0
  6  9  1  0  0  0  0
  6 45  1  0  0  0  0
  6 46  1  0  0  0  0
  7  8  2  0  0  0  0
  7 47  1  0  0  0  0
  8  9  1  0  0  0  0
  8 48  1  0  0  0  0
  9 10  1  0  0  0  0
  9 74  1  0  0  0  0
 10 11  1  0  0  0  0
 10 49  1  0  0  0  0
 10 50  1  0  0  0  0
 11 12  2  0  0  0  0
 11 14  1  0  0  0  0
 12 13  1  0  0  0  0
 12 51  1  0  0  0  0
 13 16  2  0  0  0  0
 13 52  1  0  0  0  0
 14 15  2  0  0  0  0
 14 53  1  0  0  0  0
 15 16  1  0  0  0  0
 15 54  1  0  0  0  0
 16 17  1  0  0  0  0
 17 18  1  0  0  0  0
 17 55  1  0  0  0  0
 17 56  1  0  0  0  0
 18 19  1  0  0  0  0
 18 57  1  0  0  0  0
 18 58  1  0  0  0  0
 19 20  1  0  0  0  0
 19 59  1  0  0  0  0
 19 60  1  0  0  0  0
 20 21  1  0  0  0  0
 20 61  1  0  0  0  0
 20 62  1  0  0  0  0
 21 22  2  0  0  0  0
 21 24  1  0  0  0  0
 22 23  1  0  0  0  0
 22 63  1  0  0  0  0
 23 26  2  0  0  0  0
 23 64  1  0  0  0  0
 24 25  2  0  0  0  0
 24 65  1  0  0  0  0
 25 26  1  0  0  0  0
 25 66  1  0  0  0  0
 26 27  1  0  0  0  0
 27 28  1  0  0  0  0
 27 67  1  0  0  0  0
 27 68  1  0  0  0  0
 28 29  2  0  0  0  0
 28 32  1  0  0  0  0
 29 30  1  0  0  0  0
 29 69  1  0  0  0  0
 30 31  1  0  0  0  0
 31 32  2  0  0  0  0
 31 36  1  0  0  0  0
 32 33  1  0  0  0  0
 33 34  2  0  0  0  0
 34 35  1  0  0  0  0
 34 70  1  0  0  0  0
 35 36  2  0  0  0  0
 36 37  1  0  0  0  0
 37 71  1  0  0  0  0
 37 72  1  0  0  0  0
M  CHG  1  28   1
M  END
$$$$
