QUS
 OpenBabel04091912293D

 19 19  0  0  1  0  0  0  0  0999 V2000
   19.0548   41.3561   18.5388 C   0  0  0  0  0  0  0  0  0  0  0  0
   18.0122   42.4920   18.6892 C   0  0  2  0  0  0  0  0  0  0  0  0
   16.6413   42.0699   18.1908 C   0  0  0  0  0  0  0  0  0  0  0  0
   15.5476   40.9260   16.3170 C   0  0  0  0  0  0  0  0  0  0  0  0
   16.4376   42.0556   14.7476 C   0  0  0  0  0  0  0  0  0  0  0  0
   18.4560   43.7461   17.9412 N   0  3  0  0  0  0  0  0  0  0  0  0
   16.6756   41.4888   16.8679 N   0  3  0  0  0  0  0  0  0  0  0  0
   15.4995   41.1561   15.0019 N   0  0  0  0  0  0  0  0  0  0  0  0
   20.0008   41.7005   17.7570 O   0  0  0  0  0  0  0  0  0  0  0  0
   18.9371   40.3799   19.3187 O   0  0  0  0  0  0  0  0  0  0  0  0
   14.6962   40.3432   16.9772 O   0  0  0  0  0  0  0  0  0  0  0  0
   16.6648   42.6090   13.6826 O   0  0  0  0  0  0  0  0  0  0  0  0
   17.1472   42.3673   15.8688 O   0  0  0  0  0  0  0  0  0  0  0  0
   17.9658   42.7932   19.7405 H   0  0  0  0  0  0  0  0  0  0  0  0
   15.9709   42.9380   18.1497 H   0  0  0  0  0  0  0  0  0  0  0  0
   16.1839   41.3516   18.8769 H   0  0  0  0  0  0  0  0  0  0  0  0
   17.8305   44.5421   18.0026 H   0  0  0  0  0  0  0  0  0  0  0  0
   19.4286   43.9283   18.2153 H   0  0  0  0  0  0  0  0  0  0  0  0
   18.5448   43.4190   16.9595 H   0  0  0  0  0  0  0  0  0  0  0  0
  1  2  1  0  0  0  0
  1  9  2  0  0  0  0
  1 10  1  0  0  0  0
  2  3  1  0  0  0  0
  2  6  1  0  0  0  0
  2 14  1  1  0  0  0
  3  7  1  0  0  0  0
  3 15  1  0  0  0  0
  3 16  1  0  0  0  0
  4  7  1  0  0  0  0
  4  8  1  0  0  0  0
  4 11  2  0  0  0  0
  5  8  1  0  0  0  0
  5 12  2  0  0  0  0
  5 13  1  0  0  0  0
  6 17  1  0  0  0  0
  6 18  1  0  0  0  0
  6 19  1  0  0  0  0
  7 13  1  0  0  0  0
M  CHG  2   6   1   7   1
M  END
$$$$
