R48
 OpenBabel04091912433D

 68 72  0  0  0  0  0  0  0  0999 V2000
   12.0559    1.4936    3.3371 C   0  0  0  0  0  0  0  0  0  0  0  0
   12.0040    2.3587    2.2078 C   0  0  0  0  0  0  0  0  0  0  0  0
   11.8744    3.7282    2.3754 C   0  0  0  0  0  0  0  0  0  0  0  0
   11.8252    4.5832    1.2932 N   0  0  0  0  0  0  0  0  0  0  0  0
   11.8008    4.2365    3.6716 C   0  0  0  0  0  0  0  0  0  0  0  0
   11.8574    3.3832    4.7831 C   0  0  0  0  0  0  0  0  0  0  0  0
   11.9816    2.0077    4.6386 C   0  0  0  0  0  0  0  0  0  0  0  0
   12.0263    1.2208    5.7267 N   0  0  0  0  0  0  0  0  0  0  0  0
   12.1446   -0.1001    5.5333 C   0  0  0  0  0  0  0  0  0  0  0  0
   12.2230   -0.6950    4.3424 N   0  0  0  0  0  0  0  0  0  0  0  0
   12.1934    0.1058    3.2486 C   0  0  0  0  0  0  0  0  0  0  0  0
   12.2615   -0.4875    1.9755 N   0  0  0  0  0  0  0  0  0  0  0  0
   12.0413   -1.8347    1.6899 C   0  0  0  0  0  0  0  0  0  0  0  0
   12.9964   -2.5702    0.9853 C   0  0  0  0  0  0  0  0  0  0  0  0
   10.8645   -2.4603    2.1264 C   0  0  0  0  0  0  0  0  0  0  0  0
   10.6276   -3.7979    1.8120 C   0  0  0  0  0  0  0  0  0  0  0  0
   11.5617   -4.5184    1.0912 C   0  0  0  0  0  0  0  0  0  0  0  0
   12.7522   -3.9132    0.6995 C   0  0  0  0  0  0  0  0  0  0  0  0
   13.6017   -4.6825   -0.0628 N   0  0  0  0  0  0  0  0  0  0  0  0
   14.9193   -4.8888    0.2052 C   0  0  0  0  0  0  0  0  0  0  0  0
   15.5748   -4.4193    1.0750 O   0  0  0  0  0  0  0  0  0  0  0  0
   15.4374   -5.7696   -0.7483 N   0  0  0  0  0  0  0  0  0  0  0  0
   16.7104   -6.2889   -0.6957 C   0  0  0  0  0  0  0  0  0  0  0  0
   17.5039   -6.4675    0.3930 C   0  0  0  0  0  0  0  0  0  0  0  0
   18.6469   -7.1702   -0.0650 C   0  0  0  0  0  0  0  0  0  0  0  0
   19.8057   -7.6286    0.7949 C   0  0  0  0  0  0  0  0  0  0  0  0
   19.3338   -8.8214    1.6225 C   0  0  0  0  0  0  0  0  0  0  0  0
   21.0686   -8.0693    0.0536 C   0  0  0  0  0  0  0  0  0  0  0  0
   20.2388   -6.5143    1.7549 C   0  0  0  0  0  0  0  0  0  0  0  0
   18.5308   -7.4681   -1.3662 N   0  0  0  0  0  0  0  0  0  0  0  0
   17.3530   -6.9083   -1.7308 N   0  3  0  0  0  0  0  0  0  0  0  0
   16.8716   -7.0387   -3.0370 C   0  0  0  0  0  0  0  0  0  0  0  0
   16.9813   -8.3065   -3.5931 C   0  0  0  0  0  0  0  0  0  0  0  0
   16.5171   -8.5233   -4.8754 C   0  0  0  0  0  0  0  0  0  0  0  0
   15.9593   -7.4789   -5.6095 C   0  0  0  0  0  0  0  0  0  0  0  0
   15.5045   -7.7512   -7.0123 C   0  0  0  0  0  0  0  0  0  0  0  0
   15.8615   -6.2025   -5.0293 C   0  0  0  0  0  0  0  0  0  0  0  0
   16.2998   -5.9703   -3.7279 C   0  0  0  0  0  0  0  0  0  0  0  0
   12.0640    1.9417    1.2126 H   0  0  0  0  0  0  0  0  0  0  0  0
   11.7265    5.5811    1.4396 H   0  0  0  0  0  0  0  0  0  0  0  0
   11.8847    4.2284    0.3492 H   0  0  0  0  0  0  0  0  0  0  0  0
   11.7021    5.3076    3.8180 H   0  0  0  0  0  0  0  0  0  0  0  0
   11.8029    3.8198    5.7874 H   0  0  0  0  0  0  0  0  0  0  0  0
   12.1717   -0.7366    6.4190 H   0  0  0  0  0  0  0  0  0  0  0  0
   12.5334    0.0998    1.1996 H   0  0  0  0  0  0  0  0  0  0  0  0
   13.9036   -2.0857    0.6419 H   0  0  0  0  0  0  0  0  0  0  0  0
   10.1185   -1.8902    2.6868 H   0  0  0  0  0  0  0  0  0  0  0  0
    9.7059   -4.2716    2.1371 H   0  0  0  0  0  0  0  0  0  0  0  0
   11.3838   -5.5660    0.8651 H   0  0  0  0  0  0  0  0  0  0  0  0
   13.1792   -5.2100   -0.8071 H   0  0  0  0  0  0  0  0  0  0  0  0
   14.8773   -6.0535   -1.5245 H   0  0  0  0  0  0  0  0  0  0  0  0
   17.2927   -6.1803    1.4020 H   0  0  0  0  0  0  0  0  0  0  0  0
   20.1394   -9.1902    2.2661 H   0  0  0  0  0  0  0  0  0  0  0  0
   19.0190   -9.6249    0.9490 H   0  0  0  0  0  0  0  0  0  0  0  0
   18.4844   -8.5303    2.2482 H   0  0  0  0  0  0  0  0  0  0  0  0
   21.4798   -7.2483   -0.5407 H   0  0  0  0  0  0  0  0  0  0  0  0
   20.8466   -8.9146   -0.6009 H   0  0  0  0  0  0  0  0  0  0  0  0
   21.8442   -8.3899    0.7741 H   0  0  0  0  0  0  0  0  0  0  0  0
   19.3794   -6.1497    2.3233 H   0  0  0  0  0  0  0  0  0  0  0  0
   20.6730   -5.6801    1.1922 H   0  0  0  0  0  0  0  0  0  0  0  0
   20.9889   -6.8901    2.4637 H   0  0  0  0  0  0  0  0  0  0  0  0
   17.4076   -9.1216   -3.0153 H   0  0  0  0  0  0  0  0  0  0  0  0
   16.6112   -9.5125   -5.3102 H   0  0  0  0  0  0  0  0  0  0  0  0
   15.0830   -6.8466   -7.4611 H   0  0  0  0  0  0  0  0  0  0  0  0
   14.7370   -8.5353   -7.0193 H   0  0  0  0  0  0  0  0  0  0  0  0
   16.3529   -8.0824   -7.6242 H   0  0  0  0  0  0  0  0  0  0  0  0
   15.4429   -5.3880   -5.6178 H   0  0  0  0  0  0  0  0  0  0  0  0
   16.2309   -4.9761   -3.2914 H   0  0  0  0  0  0  0  0  0  0  0  0
  1  2  2  0  0  0  0
  1  7  1  0  0  0  0
  1 11  1  0  0  0  0
  2  3  1  0  0  0  0
  2 39  1  0  0  0  0
  3  4  1  0  0  0  0
  3  5  2  0  0  0  0
  4 40  1  0  0  0  0
  4 41  1  0  0  0  0
  5  6  1  0  0  0  0
  5 42  1  0  0  0  0
  6  7  2  0  0  0  0
  6 43  1  0  0  0  0
  7  8  1  0  0  0  0
  8  9  2  0  0  0  0
  9 10  1  0  0  0  0
  9 44  1  0  0  0  0
 10 11  2  0  0  0  0
 11 12  1  0  0  0  0
 12 13  1  0  0  0  0
 12 45  1  0  0  0  0
 13 14  2  0  0  0  0
 13 15  1  0  0  0  0
 14 18  1  0  0  0  0
 14 46  1  0  0  0  0
 15 16  2  0  0  0  0
 15 47  1  0  0  0  0
 16 17  1  0  0  0  0
 16 48  1  0  0  0  0
 17 18  2  0  0  0  0
 17 49  1  0  0  0  0
 18 19  1  0  0  0  0
 19 20  1  0  0  0  0
 19 50  1  0  0  0  0
 20 21  2  0  0  0  0
 20 22  1  0  0  0  0
 22 23  1  0  0  0  0
 22 51  1  0  0  0  0
 23 24  1  0  0  0  0
 23 31  2  0  0  0  0
 24 25  2  0  0  0  0
 24 52  1  0  0  0  0
 25 26  1  0  0  0  0
 25 30  1  0  0  0  0
 26 27  1  0  0  0  0
 26 28  1  0  0  0  0
 26 29  1  0  0  0  0
 27 53  1  0  0  0  0
 27 54  1  0  0  0  0
 27 55  1  0  0  0  0
 28 56  1  0  0  0  0
 28 57  1  0  0  0  0
 28 58  1  0  0  0  0
 29 59  1  0  0  0  0
 29 60  1  0  0  0  0
 29 61  1  0  0  0  0
 30 31  1  0  0  0  0
 31 32  1  0  0  0  0
 32 33  2  0  0  0  0
 32 38  1  0  0  0  0
 33 34  1  0  0  0  0
 33 62  1  0  0  0  0
 34 35  2  0  0  0  0
 34 63  1  0  0  0  0
 35 36  1  0  0  0  0
 35 37  1  0  0  0  0
 36 64  1  0  0  0  0
 36 65  1  0  0  0  0
 36 66  1  0  0  0  0
 37 38  2  0  0  0  0
 37 67  1  0  0  0  0
 38 68  1  0  0  0  0
M  CHG  1  31   1
M  END
$$$$
