REM
 OpenBabel04091911263D

 94 97  0  0  1  0  0  0  0  0999 V2000
   -0.7646    2.3902   -8.6129 O   0  0  0  0  0  0  0  0  0  0  0  0
    0.4559    2.7364   -7.9087 S   0  0  0  0  0  0  0  0  0  0  0  0
    0.8824    1.9511   -6.7660 O   0  0  0  0  0  0  0  0  0  0  0  0
    1.8199    2.7473   -9.1042 C   0  0  0  0  0  0  0  0  0  0  0  0
    3.1739    2.7704   -8.3896 C   0  0  0  0  0  0  0  0  0  0  0  0
    1.7501    3.9305  -10.0701 C   0  0  0  0  0  0  0  0  0  0  0  0
    1.6855    1.4487   -9.8942 C   0  0  0  0  0  0  0  0  0  0  0  0
    0.2925    4.4112   -7.3891 C   0  0  0  0  0  0  0  0  0  0  0  0
   -0.8345    4.6096   -6.3914 C   0  0  1  0  0  0  0  0  0  0  0  0
   -0.8049    6.0359   -5.8477 C   0  0  0  0  0  0  0  0  0  0  0  0
    0.4237    6.3028   -5.0324 C   0  0  0  0  0  0  0  0  0  0  0  0
    0.3924    6.1021   -3.6577 C   0  0  0  0  0  0  0  0  0  0  0  0
    1.5205    6.3430   -2.8901 C   0  0  0  0  0  0  0  0  0  0  0  0
    2.7023    6.7405   -3.5020 C   0  0  0  0  0  0  0  0  0  0  0  0
    2.7602    6.8985   -4.8815 C   0  0  0  0  0  0  0  0  0  0  0  0
    1.6154    6.6970   -5.6440 C   0  0  0  0  0  0  0  0  0  0  0  0
   -2.1815    4.5345   -7.0672 C   0  0  0  0  0  0  0  0  0  0  0  0
   -2.3805    4.9510   -8.2030 O   0  0  0  0  0  0  0  0  0  0  0  0
   -3.1850    4.1497   -6.2249 N   0  0  0  0  0  0  0  0  0  0  0  0
   -4.5451    4.0054   -6.7227 C   0  0  1  0  0  0  0  0  0  0  0  0
   -4.7906    2.6143   -7.2646 C   0  0  0  0  0  0  0  0  0  0  0  0
   -5.9789    2.5615   -8.1566 C   0  0  0  0  0  0  0  0  0  0  0  0
   -5.9240    2.4878   -9.5275 C   0  0  0  0  0  0  0  0  0  0  0  0
   -7.2350    2.4846   -9.9361 N   0  3  0  0  0  0  0  0  0  0  0  0
   -8.0078    2.5419   -8.8252 C   0  0  0  0  0  0  0  0  0  0  0  0
   -7.2588    2.6003   -7.7410 N   0  0  0  0  0  0  0  0  0  0  0  0
   -5.3928    4.1867   -5.4840 C   0  0  0  0  0  0  0  0  0  0  0  0
   -5.4490    3.3305   -4.6088 O   0  0  0  0  0  0  0  0  0  0  0  0
   -5.9101    5.4429   -5.3553 N   0  0  0  0  0  0  0  0  0  0  0  0
   -6.6848    5.8052   -4.1853 C   0  0  2  0  0  0  0  0  0  0  0  0
   -8.2114    5.7914   -4.4657 C   0  0  1  0  0  0  0  0  0  0  0  0
   -8.5323    6.7981   -5.4329 O   0  0  0  0  0  0  0  0  0  0  0  0
   -8.7043    4.4151   -4.9522 C   0  0  2  0  0  0  0  0  0  0  0  0
  -10.2050    4.2704   -4.9990 C   0  0  0  0  0  0  0  0  0  0  0  0
  -11.0349    4.9470   -6.0613 C   0  0  0  0  0  0  0  0  0  0  0  0
  -10.8015    3.4628   -6.1335 C   0  0  0  0  0  0  0  0  0  0  0  0
   -8.2502    3.4419   -4.0176 O   0  0  0  0  0  0  0  0  0  0  0  0
   -6.1573    7.1794   -3.7797 C   0  0  0  0  0  0  0  0  0  0  0  0
   -4.7127    7.1523   -3.2705 C   0  0  0  0  0  0  0  0  0  0  0  0
   -4.3772    8.5171   -2.6788 C   0  0  0  0  0  0  0  0  0  0  0  0
   -2.8771    8.6047   -2.4922 C   0  0  0  0  0  0  0  0  0  0  0  0
   -2.3131    7.4587   -1.6543 C   0  0  0  0  0  0  0  0  0  0  0  0
   -2.9543    6.0809   -1.8402 C   0  0  0  0  0  0  0  0  0  0  0  0
   -4.4312    6.1036   -2.1937 C   0  0  0  0  0  0  0  0  0  0  0  0
    3.9916    2.7307   -9.1187 H   0  0  0  0  0  0  0  0  0  0  0  0
    3.2864    1.9097   -7.7231 H   0  0  0  0  0  0  0  0  0  0  0  0
    3.2973    3.6786   -7.7905 H   0  0  0  0  0  0  0  0  0  0  0  0
    2.5733    3.8794  -10.7917 H   0  0  0  0  0  0  0  0  0  0  0  0
    1.8460    4.8887   -9.5506 H   0  0  0  0  0  0  0  0  0  0  0  0
    0.8089    3.9333  -10.6272 H   0  0  0  0  0  0  0  0  0  0  0  0
    2.4816    1.3553  -10.6340 H   0  0  0  0  0  0  0  0  0  0  0  0
    0.7229    1.4179  -10.4169 H   0  0  0  0  0  0  0  0  0  0  0  0
    1.7212    0.5882   -9.2176 H   0  0  0  0  0  0  0  0  0  0  0  0
    0.1265    5.0302   -8.2728 H   0  0  0  0  0  0  0  0  0  0  0  0
    1.2608    4.6498   -6.9519 H   0  0  0  0  0  0  0  0  0  0  0  0
   -0.7777    3.8596   -5.5906 H   0  0  0  0  0  0  0  0  0  0  0  0
   -1.7005    6.2368   -5.2446 H   0  0  0  0  0  0  0  0  0  0  0  0
   -0.8462    6.7539   -6.6783 H   0  0  0  0  0  0  0  0  0  0  0  0
   -0.5177    5.7708   -3.1794 H   0  0  0  0  0  0  0  0  0  0  0  0
    1.4709    6.2221   -1.8101 H   0  0  0  0  0  0  0  0  0  0  0  0
    3.5857    6.9297   -2.8982 H   0  0  0  0  0  0  0  0  0  0  0  0
    3.6876    7.1819   -5.3664 H   0  0  0  0  0  0  0  0  0  0  0  0
    1.6674    6.8196   -6.7229 H   0  0  0  0  0  0  0  0  0  0  0  0
   -2.9815    3.7710   -5.3014 H   0  0  0  0  0  0  0  0  0  0  0  0
   -4.7434    4.7903   -7.4661 H   0  0  0  0  0  0  0  0  0  0  0  0
   -4.8848    1.8811   -6.4555 H   0  0  0  0  0  0  0  0  0  0  0  0
   -3.9037    2.3093   -7.8363 H   0  0  0  0  0  0  0  0  0  0  0  0
   -5.0963    2.4477  -10.2010 H   0  0  0  0  0  0  0  0  0  0  0  0
   -7.5537    2.4049  -10.8963 H   0  0  0  0  0  0  0  0  0  0  0  0
   -9.1134    2.5208   -8.8571 H   0  0  0  0  0  0  0  0  0  0  0  0
   -5.8009    6.1268   -6.0937 H   0  0  0  0  0  0  0  0  0  0  0  0
   -6.5014    5.0866   -3.3818 H   0  0  0  0  0  0  0  0  0  0  0  0
   -8.7238    6.0281   -3.5244 H   0  0  0  0  0  0  0  0  0  0  0  0
   -8.2577    7.6472   -5.0541 H   0  0  0  0  0  0  0  0  0  0  0  0
   -8.3016    4.2281   -5.9540 H   0  0  0  0  0  0  0  0  0  0  0  0
  -10.6311    4.1630   -4.0084 H   0  0  0  0  0  0  0  0  0  0  0  0
  -10.5181    5.6015   -6.7528 H   0  0  0  0  0  0  0  0  0  0  0  0
  -12.0286    5.2945   -5.8015 H   0  0  0  0  0  0  0  0  0  0  0  0
  -11.6340    2.7952   -5.9465 H   0  0  0  0  0  0  0  0  0  0  0  0
  -10.1277    3.0834   -6.8918 H   0  0  0  0  0  0  0  0  0  0  0  0
   -8.4567    2.5713   -4.3894 H   0  0  0  0  0  0  0  0  0  0  0  0
   -6.8137    7.6384   -3.0344 H   0  0  0  0  0  0  0  0  0  0  0  0
   -6.1616    7.8323   -4.6662 H   0  0  0  0  0  0  0  0  0  0  0  0
   -4.0440    6.9597   -4.1262 H   0  0  0  0  0  0  0  0  0  0  0  0
   -4.8887    8.6410   -1.7144 H   0  0  0  0  0  0  0  0  0  0  0  0
   -4.7278    9.3241   -3.3312 H   0  0  0  0  0  0  0  0  0  0  0  0
   -2.6233    9.5594   -2.0199 H   0  0  0  0  0  0  0  0  0  0  0  0
   -2.4034    8.6035   -3.4819 H   0  0  0  0  0  0  0  0  0  0  0  0
   -2.3918    7.7306   -0.5978 H   0  0  0  0  0  0  0  0  0  0  0  0
   -1.2427    7.3876   -1.8621 H   0  0  0  0  0  0  0  0  0  0  0  0
   -2.8095    5.4885   -0.9288 H   0  0  0  0  0  0  0  0  0  0  0  0
   -2.4449    5.5309   -2.6368 H   0  0  0  0  0  0  0  0  0  0  0  0
   -4.6983    5.0968   -2.5253 H   0  0  0  0  0  0  0  0  0  0  0  0
   -5.0265    6.3164   -1.2989 H   0  0  0  0  0  0  0  0  0  0  0  0
  1  2  2  0  0  0  0
  2  3  2  0  0  0  0
  2  4  1  0  0  0  0
  2  8  1  0  0  0  0
  4  5  1  0  0  0  0
  4  6  1  0  0  0  0
  4  7  1  0  0  0  0
  5 45  1  0  0  0  0
  5 46  1  0  0  0  0
  5 47  1  0  0  0  0
  6 48  1  0  0  0  0
  6 49  1  0  0  0  0
  6 50  1  0  0  0  0
  7 51  1  0  0  0  0
  7 52  1  0  0  0  0
  7 53  1  0  0  0  0
  8  9  1  0  0  0  0
  8 54  1  0  0  0  0
  8 55  1  0  0  0  0
  9 10  1  0  0  0  0
  9 17  1  0  0  0  0
  9 56  1  1  0  0  0
 10 11  1  0  0  0  0
 10 57  1  0  0  0  0
 10 58  1  0  0  0  0
 11 12  2  0  0  0  0
 11 16  1  0  0  0  0
 12 13  1  0  0  0  0
 12 59  1  0  0  0  0
 13 14  2  0  0  0  0
 13 60  1  0  0  0  0
 14 15  1  0  0  0  0
 14 61  1  0  0  0  0
 15 16  2  0  0  0  0
 15 62  1  0  0  0  0
 16 63  1  0  0  0  0
 17 18  2  0  0  0  0
 17 19  1  0  0  0  0
 19 20  1  0  0  0  0
 19 64  1  0  0  0  0
 20 21  1  0  0  0  0
 20 27  1  0  0  0  0
 20 65  1  6  0  0  0
 21 22  1  0  0  0  0
 21 66  1  0  0  0  0
 21 67  1  0  0  0  0
 22 23  2  0  0  0  0
 22 26  1  0  0  0  0
 23 24  1  0  0  0  0
 23 68  1  0  0  0  0
 24 25  2  0  0  0  0
 24 69  1  0  0  0  0
 25 26  1  0  0  0  0
 25 70  1  0  0  0  0
 27 28  2  0  0  0  0
 27 29  1  0  0  0  0
 29 30  1  0  0  0  0
 29 71  1  0  0  0  0
 30 31  1  0  0  0  0
 30 38  1  0  0  0  0
 30 72  1  1  0  0  0
 31 32  1  0  0  0  0
 31 33  1  0  0  0  0
 31 73  1  1  0  0  0
 32 74  1  0  0  0  0
 33 34  1  0  0  0  0
 33 37  1  0  0  0  0
 33 75  1  6  0  0  0
 34 35  1  0  0  0  0
 34 36  1  0  0  0  0
 34 76  1  0  0  0  0
 35 36  1  0  0  0  0
 35 77  1  0  0  0  0
 35 78  1  0  0  0  0
 36 79  1  0  0  0  0
 36 80  1  0  0  0  0
 37 81  1  0  0  0  0
 38 39  1  0  0  0  0
 38 82  1  0  0  0  0
 38 83  1  0  0  0  0
 39 40  1  0  0  0  0
 39 44  1  0  0  0  0
 39 84  1  0  0  0  0
 40 41  1  0  0  0  0
 40 85  1  0  0  0  0
 40 86  1  0  0  0  0
 41 42  1  0  0  0  0
 41 87  1  0  0  0  0
 41 88  1  0  0  0  0
 42 43  1  0  0  0  0
 42 89  1  0  0  0  0
 42 90  1  0  0  0  0
 43 44  1  0  0  0  0
 43 91  1  0  0  0  0
 43 92  1  0  0  0  0
 44 93  1  0  0  0  0
 44 94  1  0  0  0  0
M  CHG  1  24   1
M  END
$$$$
