RES
 OpenBabel04091913243D

 22 21  0  0  1  0  0  0  0  0999 V2000
   43.2605   29.4783   13.9782 O   0  0  0  0  0  0  0  0  0  0  0  0
   42.8388   29.3662   12.5076 P   0  0  0  0  0  0  0  0  0  0  0  0
   43.5636   28.2808   11.7017 O   0  0  0  0  0  0  0  0  0  0  0  0
   42.6940   30.7055   11.8230 O   0  0  0  0  0  0  0  0  0  0  0  0
   41.3051   28.7904   12.6257 O   0  0  0  0  0  0  0  0  0  0  0  0
   40.2797   29.7178   12.9175 C   0  0  0  0  0  0  0  0  0  0  0  0
   39.0218   28.8797   13.1822 C   0  0  1  0  0  0  0  0  0  0  0  0
   39.1537   28.0252   14.3393 O   0  0  0  0  0  0  0  0  0  0  0  0
   37.7296   29.6729   13.4464 C   0  0  1  0  0  0  0  0  0  0  0  0
   37.5952   30.9042   12.7452 O   0  0  0  0  0  0  0  0  0  0  0  0
   36.5667   28.7048   13.1285 C   0  0  0  0  0  0  0  0  0  0  0  0
   36.3288   28.2142   12.0148 O   0  0  0  0  0  0  0  0  0  0  0  0
   35.7737   28.4178   14.2076 N   0  0  0  0  0  0  0  0  0  0  0  0
   34.6550   27.5453   14.0042 O   0  0  0  0  0  0  0  0  0  0  0  0
   40.1312   30.3614   12.0430 H   0  0  0  0  0  0  0  0  0  0  0  0
   40.5396   30.3360   13.7805 H   0  0  0  0  0  0  0  0  0  0  0  0
   38.8956   28.2194   12.3137 H   0  0  0  0  0  0  0  0  0  0  0  0
   39.6916   28.5273   14.9859 H   0  0  0  0  0  0  0  0  0  0  0  0
   37.6832   29.9312   14.5132 H   0  0  0  0  0  0  0  0  0  0  0  0
   38.3932   31.4352   12.9295 H   0  0  0  0  0  0  0  0  0  0  0  0
   35.8303   28.8746   15.1053 H   0  0  0  0  0  0  0  0  0  0  0  0
   35.0999   26.7810   13.5697 H   0  0  0  0  0  0  0  0  0  0  0  0
  1  2  2  0  0  0  0
  2  3  1  0  0  0  0
  2  4  1  0  0  0  0
  2  5  1  0  0  0  0
  5  6  1  0  0  0  0
  6  7  1  0  0  0  0
  6 15  1  0  0  0  0
  6 16  1  0  0  0  0
  7  8  1  0  0  0  0
  7  9  1  0  0  0  0
  7 17  1  6  0  0  0
  8 18  1  0  0  0  0
  9 10  1  0  0  0  0
  9 11  1  0  0  0  0
  9 19  1  1  0  0  0
 10 20  1  0  0  0  0
 11 12  2  0  0  0  0
 11 13  1  0  0  0  0
 13 14  1  0  0  0  0
 13 21  1  0  0  0  0
 14 22  1  0  0  0  0
M  END
$$$$
