RGG
 OpenBabel04091912413D

 35 35  0  0  1  0  0  0  0  0999 V2000
   -1.0149   -5.2646   -2.9855 O   0  0  0  0  0  0  0  0  0  0  0  0
   -0.1986   -4.1599   -2.6100 C   0  0  0  0  0  0  0  0  0  0  0  0
    0.5689   -4.4245   -1.3095 C   0  0  1  0  0  0  0  0  0  0  0  0
    1.6503   -3.4875   -1.2231 O   0  0  0  0  0  0  0  0  0  0  0  0
   -0.3524   -4.2580   -0.0911 C   0  0  0  0  0  0  0  0  0  0  0  0
    0.3504   -4.5928    1.1099 O   0  0  0  0  0  0  0  0  0  0  0  0
   -0.4096   -4.2903    2.2882 C   0  0  1  0  0  0  0  0  0  0  0  0
    0.3644   -4.8602    3.4972 C   0  0  2  0  0  0  0  0  0  0  0  0
    0.3028   -6.3028    3.5117 O   0  0  0  0  0  0  0  0  0  0  0  0
   -0.2311   -4.3768    4.8196 C   0  0  1  0  0  0  0  0  0  0  0  0
    0.6681   -4.6944    5.9017 O   0  0  0  0  0  0  0  0  0  0  0  0
   -0.4897   -2.8762    4.8275 C   0  0  1  0  0  0  0  0  0  0  0  0
    0.7637   -2.1782    4.8465 O   0  0  0  0  0  0  0  0  0  0  0  0
   -1.2948   -2.4879    3.5879 C   0  0  2  0  0  0  0  0  0  0  0  0
   -0.5961   -2.8768    2.3871 O   0  0  0  0  0  0  0  0  0  0  0  0
   -1.5415   -0.9783    3.5396 C   0  0  0  0  0  0  0  0  0  0  0  0
   -2.1786   -0.6351    2.3083 O   0  0  0  0  0  0  0  0  0  0  0  0
   -1.7060   -5.3801   -2.3133 H   0  0  0  0  0  0  0  0  0  0  0  0
   -0.8230   -3.2646   -2.5271 H   0  0  0  0  0  0  0  0  0  0  0  0
    0.5023   -3.9741   -3.4318 H   0  0  0  0  0  0  0  0  0  0  0  0
    0.9969   -5.4351   -1.3016 H   0  0  0  0  0  0  0  0  0  0  0  0
    2.3149   -3.7585   -1.8818 H   0  0  0  0  0  0  0  0  0  0  0  0
   -1.2197   -4.9193   -0.1749 H   0  0  0  0  0  0  0  0  0  0  0  0
   -0.6955   -3.2174   -0.0373 H   0  0  0  0  0  0  0  0  0  0  0  0
   -1.3850   -4.7835    2.2039 H   0  0  0  0  0  0  0  0  0  0  0  0
    1.4250   -4.5855    3.4232 H   0  0  0  0  0  0  0  0  0  0  0  0
    1.1555   -6.6144    3.8622 H   0  0  0  0  0  0  0  0  0  0  0  0
   -1.1674   -4.9109    5.0245 H   0  0  0  0  0  0  0  0  0  0  0  0
    0.7076   -5.6673    5.9493 H   0  0  0  0  0  0  0  0  0  0  0  0
   -1.0218   -2.5886    5.7463 H   0  0  0  0  0  0  0  0  0  0  0  0
    1.3172   -2.6625    5.4984 H   0  0  0  0  0  0  0  0  0  0  0  0
   -2.2670   -2.9998    3.5772 H   0  0  0  0  0  0  0  0  0  0  0  0
   -0.6108   -0.4021    3.5967 H   0  0  0  0  0  0  0  0  0  0  0  0
   -2.1949   -0.6676    4.3603 H   0  0  0  0  0  0  0  0  0  0  0  0
   -1.5528   -0.9352    1.6195 H   0  0  0  0  0  0  0  0  0  0  0  0
  1  2  1  0  0  0  0
  1 18  1  0  0  0  0
  2  3  1  0  0  0  0
  2 19  1  0  0  0  0
  2 20  1  0  0  0  0
  3  4  1  0  0  0  0
  3  5  1  0  0  0  0
  3 21  1  6  0  0  0
  4 22  1  0  0  0  0
  5  6  1  0  0  0  0
  5 23  1  0  0  0  0
  5 24  1  0  0  0  0
  6  7  1  0  0  0  0
  7  8  1  0  0  0  0
  7 15  1  0  0  0  0
  7 25  1  6  0  0  0
  8  9  1  0  0  0  0
  8 10  1  0  0  0  0
  8 26  1  6  0  0  0
  9 27  1  0  0  0  0
 10 11  1  0  0  0  0
 10 12  1  0  0  0  0
 10 28  1  1  0  0  0
 11 29  1  0  0  0  0
 12 13  1  0  0  0  0
 12 14  1  0  0  0  0
 12 30  1  1  0  0  0
 13 31  1  0  0  0  0
 14 15  1  0  0  0  0
 14 16  1  0  0  0  0
 14 32  1  1  0  0  0
 16 17  1  0  0  0  0
 16 33  1  0  0  0  0
 16 34  1  0  0  0  0
 17 35  1  0  0  0  0
M  END
$$$$
