RJP
 OpenBabel04091914013D

 41 42  0  0  1  0  0  0  0  0999 V2000
   28.3474   26.8536   -3.6080 O   0  0  0  0  0  0  0  0  0  0  0  0
   31.4399   25.1632    3.1323 O   0  0  0  0  0  0  0  0  0  0  0  0
   29.5009   24.3911    4.0250 O   0  0  0  0  0  0  0  0  0  0  0  0
   27.6389   20.9499    0.8219 O   0  0  0  0  0  0  0  0  0  0  0  0
   28.2607   22.3144   -1.7049 O   0  0  0  0  0  0  0  0  0  0  0  0
   31.3347   22.8202    1.5213 O   0  0  0  0  0  0  0  0  0  0  0  0
   29.5622   26.3563   -1.6242 C   0  0  0  0  0  0  0  0  0  0  0  0
   28.9050   25.0043   -1.6445 C   0  0  0  0  0  0  0  0  0  0  0  0
   29.9532   24.4871    0.6139 C   0  0  0  0  0  0  0  0  0  0  0  0
   27.2479   31.9618   -3.7558 C   0  0  0  0  0  0  0  0  0  0  0  0
   26.9691   30.7514   -4.3454 C   0  0  0  0  0  0  0  0  0  0  0  0
   28.0519   32.0472   -2.6285 C   0  0  0  0  0  0  0  0  0  0  0  0
   27.5057   29.5794   -3.8025 C   0  0  0  0  0  0  0  0  0  0  0  0
   28.5982   30.8907   -2.0775 C   0  0  0  0  0  0  0  0  0  0  0  0
   28.9894   22.6059    2.0089 C   0  0  0  0  0  0  0  0  0  0  0  0
   28.9019   28.5553   -2.0919 N   0  0  0  0  0  0  0  0  0  0  0  0
   28.8516   27.2570   -2.5672 C   0  0  0  0  0  0  0  0  0  0  0  0
   30.3783   24.4777    3.1024 C   0  0  0  0  0  0  0  0  0  0  0  0
   29.1951   24.1472   -0.4432 C   0  0  0  0  0  0  0  0  0  0  0  0
   28.3238   29.6554   -2.6774 C   0  0  0  0  0  0  0  0  0  0  0  0
   28.7458   21.8624    0.6919 C   0  0  2  0  0  0  0  0  0  0  0  0
   28.3993   22.8869   -0.4013 C   0  0  2  0  0  0  0  0  0  0  0  0
   30.1493   23.5966    1.8202 C   0  0  1  0  0  0  0  0  0  0  0  0
   27.5345   20.5549   -0.0650 H   0  0  0  0  0  0  0  0  0  0  0  0
   27.6269   22.9198   -2.1401 H   0  0  0  0  0  0  0  0  0  0  0  0
   31.5505   22.3528    2.3463 H   0  0  0  0  0  0  0  0  0  0  0  0
   30.6099   26.2827   -1.9403 H   0  0  0  0  0  0  0  0  0  0  0  0
   29.5063   26.7945   -0.6235 H   0  0  0  0  0  0  0  0  0  0  0  0
   29.2391   24.4771   -2.5458 H   0  0  0  0  0  0  0  0  0  0  0  0
   27.8136   25.1244   -1.7289 H   0  0  0  0  0  0  0  0  0  0  0  0
   30.4342   25.4675    0.6724 H   0  0  0  0  0  0  0  0  0  0  0  0
   26.8265   32.8725   -4.1765 H   0  0  0  0  0  0  0  0  0  0  0  0
   26.3390   30.6647   -5.2353 H   0  0  0  0  0  0  0  0  0  0  0  0
   28.2660   33.0153   -2.1664 H   0  0  0  0  0  0  0  0  0  0  0  0
   27.2582   28.6292   -4.2574 H   0  0  0  0  0  0  0  0  0  0  0  0
   29.2338   30.9521   -1.2027 H   0  0  0  0  0  0  0  0  0  0  0  0
   29.2308   21.8794    2.7958 H   0  0  0  0  0  0  0  0  0  0  0  0
   28.0719   23.1131    2.3452 H   0  0  0  0  0  0  0  0  0  0  0  0
   29.4158   28.6942   -1.2355 H   0  0  0  0  0  0  0  0  0  0  0  0
   29.6241   21.2536    0.4461 H   0  0  0  0  0  0  0  0  0  0  0  0
   27.3925   23.2243   -0.1586 H   0  0  0  0  0  0  0  0  0  0  0  0
  1 17  2  0  0  0  0
  2 18  2  0  0  0  0
  3 18  1  0  0  0  0
  4 21  1  0  0  0  0
  4 24  1  0  0  0  0
  5 22  1  0  0  0  0
  5 25  1  0  0  0  0
  6 26  1  0  0  0  0
  7  8  1  0  0  0  0
  7 17  1  0  0  0  0
  7 27  1  0  0  0  0
  7 28  1  0  0  0  0
  8 19  1  0  0  0  0
  8 29  1  0  0  0  0
  8 30  1  0  0  0  0
  9 19  2  0  0  0  0
  9 23  1  0  0  0  0
  9 31  1  0  0  0  0
 10 11  2  0  0  0  0
 10 12  1  0  0  0  0
 10 32  1  0  0  0  0
 11 13  1  0  0  0  0
 11 33  1  0  0  0  0
 12 14  2  0  0  0  0
 12 34  1  0  0  0  0
 13 20  2  0  0  0  0
 13 35  1  0  0  0  0
 14 20  1  0  0  0  0
 14 36  1  0  0  0  0
 15 21  1  0  0  0  0
 15 23  1  0  0  0  0
 15 37  1  0  0  0  0
 15 38  1  0  0  0  0
 16 17  1  0  0  0  0
 16 20  1  0  0  0  0
 16 39  1  0  0  0  0
 18 23  1  0  0  0  0
 19 22  1  0  0  0  0
 21 22  1  0  0  0  0
 21 40  1  6  0  0  0
 22 41  1  1  0  0  0
 23  6  1  6  0  0  0
M  END
$$$$
