ROC
 OpenBabel04091911183D

100104  0  0  1  0  0  0  0  0999 V2000
   20.8941   27.5434   18.6978 O   0  0  0  0  0  0  0  0  0  0  0  0
   21.4238   26.4499   18.5242 C   0  0  0  0  0  0  0  0  0  0  0  0
   23.1496   24.7974   18.9481 N   0  0  0  0  0  0  0  0  0  0  0  0
   22.6000   25.9885   19.3228 C   0  0  0  0  0  0  0  0  0  0  0  0
   22.9960   26.7177   20.4314 C   0  0  0  0  0  0  0  0  0  0  0  0
   23.9925   26.1789   21.2327 C   0  0  0  0  0  0  0  0  0  0  0  0
   24.5906   24.9633   20.8778 C   0  0  0  0  0  0  0  0  0  0  0  0
   25.6151   24.4043   21.6587 C   0  0  0  0  0  0  0  0  0  0  0  0
   26.2215   23.2112   21.2759 C   0  0  0  0  0  0  0  0  0  0  0  0
   25.7886   22.5578   20.1266 C   0  0  0  0  0  0  0  0  0  0  0  0
   24.7567   23.1089   19.3595 C   0  0  0  0  0  0  0  0  0  0  0  0
   24.1457   24.3054   19.7076 C   0  0  0  0  0  0  0  0  0  0  0  0
   20.9562   25.5194   17.6245 N   0  0  0  0  0  0  0  0  0  0  0  0
   19.8069   25.7463   16.7778 C   0  0  2  0  0  0  0  0  0  0  0  0
   18.8050   24.6244   17.0379 C   0  0  0  0  0  0  0  0  0  0  0  0
   18.8086   23.5466   16.4490 O   0  0  0  0  0  0  0  0  0  0  0  0
   20.1667   25.7717   15.3020 C   0  0  0  0  0  0  0  0  0  0  0  0
   21.0667   26.9403   15.0182 C   0  0  0  0  0  0  0  0  0  0  0  0
   22.2642   26.8241   14.7886 O   0  0  0  0  0  0  0  0  0  0  0  0
   20.4643   28.1631   15.0354 N   0  0  0  0  0  0  0  0  0  0  0  0
   15.5162   24.5023   18.1232 C   0  0  1  0  0  0  0  0  0  0  0  0
   15.1756   25.6048   18.9664 O   0  0  0  0  0  0  0  0  0  0  0  0
   16.9114   23.9496   18.4932 C   0  0  1  0  0  0  0  0  0  0  0  0
   17.8950   24.9209   18.0321 N   0  0  0  0  0  0  0  0  0  0  0  0
   17.0580   23.6709   19.9990 C   0  0  0  0  0  0  0  0  0  0  0  0
   18.4749   23.3827   20.4182 C   0  0  0  0  0  0  0  0  0  0  0  0
   19.0609   22.1350   20.1750 C   0  0  0  0  0  0  0  0  0  0  0  0
   19.2281   24.3889   21.0379 C   0  0  0  0  0  0  0  0  0  0  0  0
   20.3716   21.8885   20.5841 C   0  0  0  0  0  0  0  0  0  0  0  0
   20.5340   24.1373   21.4449 C   0  0  0  0  0  0  0  0  0  0  0  0
   21.1031   22.8865   21.2238 C   0  0  0  0  0  0  0  0  0  0  0  0
   14.3653   22.6128   16.9235 N   0  3  1  0  0  0  0  0  0  0  0  0
   14.4196   23.4334   18.2077 C   0  0  0  0  0  0  0  0  0  0  0  0
   13.7562   21.2291   17.1581 C   0  0  2  0  0  0  0  0  0  0  0  0
   14.5486   20.4633   18.2122 C   0  0  0  0  0  0  0  0  0  0  0  0
   15.7801   20.5441   18.2300 O   0  0  0  0  0  0  0  0  0  0  0  0
   13.8123   20.4282   15.8566 C   0  0  0  0  0  0  0  0  0  0  0  0
   13.1330   21.1726   14.7029 C   0  0  2  0  0  0  0  0  0  0  0  0
   13.2140   20.3830   13.3902 C   0  0  0  0  0  0  0  0  0  0  0  0
   14.5981   20.4253   12.7416 C   0  0  0  0  0  0  0  0  0  0  0  0
   15.1037   21.8565   12.5873 C   0  0  0  0  0  0  0  0  0  0  0  0
   15.1320   22.5567   13.9393 C   0  0  0  0  0  0  0  0  0  0  0  0
   13.7136   22.5867   14.5309 C   0  0  2  0  0  0  0  0  0  0  0  0
   13.6600   23.3567   15.8388 C   0  0  0  0  0  0  0  0  0  0  0  0
   13.7788   19.7964   19.1296 N   0  0  0  0  0  0  0  0  0  0  0  0
   14.3202   18.9084   20.1675 C   0  0  0  0  0  0  0  0  0  0  0  0
   13.1377   18.3764   20.9955 C   0  0  0  0  0  0  0  0  0  0  0  0
   15.2613   19.6767   21.1036 C   0  0  0  0  0  0  0  0  0  0  0  0
   15.0361   17.7217   19.5121 C   0  0  0  0  0  0  0  0  0  0  0  0
   22.5173   27.6567   20.6846 H   0  0  0  0  0  0  0  0  0  0  0  0
   24.2976   26.7064   22.1313 H   0  0  0  0  0  0  0  0  0  0  0  0
   25.9548   24.9034   22.5625 H   0  0  0  0  0  0  0  0  0  0  0  0
   27.0361   22.7981   21.8677 H   0  0  0  0  0  0  0  0  0  0  0  0
   26.2544   21.6252   19.8211 H   0  0  0  0  0  0  0  0  0  0  0  0
   24.4300   22.5901   18.4614 H   0  0  0  0  0  0  0  0  0  0  0  0
   21.4630   24.6336   17.5928 H   0  0  0  0  0  0  0  0  0  0  0  0
   19.3324   26.6959   17.0553 H   0  0  0  0  0  0  0  0  0  0  0  0
   19.2599   25.8699   14.6913 H   0  0  0  0  0  0  0  0  0  0  0  0
   20.6661   24.8485   14.9869 H   0  0  0  0  0  0  0  0  0  0  0  0
   21.0813   28.9651   14.9811 H   0  0  0  0  0  0  0  0  0  0  0  0
   19.5298   28.3179   15.3827 H   0  0  0  0  0  0  0  0  0  0  0  0
   15.5742   24.9071   17.1069 H   0  0  0  0  0  0  0  0  0  0  0  0
   14.3596   26.0271   18.6443 H   0  0  0  0  0  0  0  0  0  0  0  0
   17.0784   23.0117   17.9490 H   0  0  0  0  0  0  0  0  0  0  0  0
   17.9983   25.7846   18.5541 H   0  0  0  0  0  0  0  0  0  0  0  0
   16.4304   22.8195   20.2907 H   0  0  0  0  0  0  0  0  0  0  0  0
   16.6899   24.5234   20.5816 H   0  0  0  0  0  0  0  0  0  0  0  0
   18.5081   21.3489   19.6651 H   0  0  0  0  0  0  0  0  0  0  0  0
   18.8042   25.3769   21.2043 H   0  0  0  0  0  0  0  0  0  0  0  0
   20.8254   20.9179   20.4029 H   0  0  0  0  0  0  0  0  0  0  0  0
   21.1104   24.9202   21.9285 H   0  0  0  0  0  0  0  0  0  0  0  0
   22.1245   22.6933   21.5413 H   0  0  0  0  0  0  0  0  0  0  0  0
   13.4292   23.8838   18.3369 H   0  0  0  0  0  0  0  0  0  0  0  0
   14.5767   22.7749   19.0643 H   0  0  0  0  0  0  0  0  0  0  0  0
   12.7256   21.3925   17.4900 H   0  0  0  0  0  0  0  0  0  0  0  0
   13.3258   19.4557   16.0084 H   0  0  0  0  0  0  0  0  0  0  0  0
   14.8568   20.1955   15.6082 H   0  0  0  0  0  0  0  0  0  0  0  0
   12.0699   21.2693   14.9668 H   0  0  0  0  0  0  0  0  0  0  0  0
   12.4869   20.8089   12.6870 H   0  0  0  0  0  0  0  0  0  0  0  0
   12.9150   19.3416   13.5561 H   0  0  0  0  0  0  0  0  0  0  0  0
   14.5565   19.9419   11.7604 H   0  0  0  0  0  0  0  0  0  0  0  0
   15.3104   19.8526   13.3476 H   0  0  0  0  0  0  0  0  0  0  0  0
   14.4469   22.4097   11.9040 H   0  0  0  0  0  0  0  0  0  0  0  0
   16.1047   21.8575   12.1441 H   0  0  0  0  0  0  0  0  0  0  0  0
   15.5181   23.5760   13.8243 H   0  0  0  0  0  0  0  0  0  0  0  0
   15.8334   22.0320   14.5991 H   0  0  0  0  0  0  0  0  0  0  0  0
   13.0757   23.1306   13.8200 H   0  0  0  0  0  0  0  0  0  0  0  0
   14.1244   24.3389   15.7234 H   0  0  0  0  0  0  0  0  0  0  0  0
   12.6230   23.4999   16.1661 H   0  0  0  0  0  0  0  0  0  0  0  0
   12.7682   19.8204   19.0546 H   0  0  0  0  0  0  0  0  0  0  0  0
   13.4760   17.6953   21.7828 H   0  0  0  0  0  0  0  0  0  0  0  0
   12.4246   17.8378   20.3626 H   0  0  0  0  0  0  0  0  0  0  0  0
   12.5906   19.1998   21.4694 H   0  0  0  0  0  0  0  0  0  0  0  0
   15.6377   19.0294   21.9053 H   0  0  0  0  0  0  0  0  0  0  0  0
   14.7399   20.5221   21.5717 H   0  0  0  0  0  0  0  0  0  0  0  0
   16.1326   20.0857   20.5839 H   0  0  0  0  0  0  0  0  0  0  0  0
   15.4114   17.0210   20.2649 H   0  0  0  0  0  0  0  0  0  0  0  0
   15.8882   18.0415   18.8988 H   0  0  0  0  0  0  0  0  0  0  0  0
   14.3559   17.1737   18.8489 H   0  0  0  0  0  0  0  0  0  0  0  0
   15.3464   22.4116   16.6617 H   0  0  0  0  0  0  0  0  0  0  0  0
  1  2  2  0  0  0  0
  2  4  1  0  0  0  0
  2 13  1  0  0  0  0
  3  4  2  0  0  0  0
  3 12  1  0  0  0  0
  4  5  1  0  0  0  0
  5  6  2  0  0  0  0
  5 50  1  0  0  0  0
  6  7  1  0  0  0  0
  6 51  1  0  0  0  0
  7  8  2  0  0  0  0
  7 12  1  0  0  0  0
  8  9  1  0  0  0  0
  8 52  1  0  0  0  0
  9 10  2  0  0  0  0
  9 53  1  0  0  0  0
 10 11  1  0  0  0  0
 10 54  1  0  0  0  0
 11 12  2  0  0  0  0
 11 55  1  0  0  0  0
 13 14  1  0  0  0  0
 13 56  1  0  0  0  0
 14 15  1  0  0  0  0
 14 17  1  0  0  0  0
 14 57  1  1  0  0  0
 15 16  2  0  0  0  0
 15 24  1  0  0  0  0
 17 18  1  0  0  0  0
 17 58  1  0  0  0  0
 17 59  1  0  0  0  0
 18 19  2  0  0  0  0
 18 20  1  0  0  0  0
 20 60  1  0  0  0  0
 20 61  1  0  0  0  0
 21 22  1  0  0  0  0
 21 23  1  0  0  0  0
 21 33  1  0  0  0  0
 21 62  1  6  0  0  0
 22 63  1  0  0  0  0
 23 24  1  0  0  0  0
 23 25  1  0  0  0  0
 23 64  1  6  0  0  0
 24 65  1  0  0  0  0
 25 26  1  0  0  0  0
 25 66  1  0  0  0  0
 25 67  1  0  0  0  0
 26 27  2  0  0  0  0
 26 28  1  0  0  0  0
 27 29  1  0  0  0  0
 27 68  1  0  0  0  0
 28 30  2  0  0  0  0
 28 69  1  0  0  0  0
 29 31  2  0  0  0  0
 29 70  1  0  0  0  0
 30 31  1  0  0  0  0
 30 71  1  0  0  0  0
 31 72  1  0  0  0  0
 32 33  1  0  0  0  0
 32 34  1  0  0  0  0
 32 44  1  0  0  0  0
 32100  1  6  0  0  0
 33 73  1  0  0  0  0
 33 74  1  0  0  0  0
 34 35  1  0  0  0  0
 34 37  1  0  0  0  0
 34 75  1  1  0  0  0
 35 36  2  0  0  0  0
 35 45  1  0  0  0  0
 37 38  1  0  0  0  0
 37 76  1  0  0  0  0
 37 77  1  0  0  0  0
 38 39  1  0  0  0  0
 38 43  1  0  0  0  0
 38 78  1  1  0  0  0
 39 40  1  0  0  0  0
 39 79  1  0  0  0  0
 39 80  1  0  0  0  0
 40 41  1  0  0  0  0
 40 81  1  0  0  0  0
 40 82  1  0  0  0  0
 41 42  1  0  0  0  0
 41 83  1  0  0  0  0
 41 84  1  0  0  0  0
 42 43  1  0  0  0  0
 42 85  1  0  0  0  0
 42 86  1  0  0  0  0
 43 44  1  0  0  0  0
 43 87  1  6  0  0  0
 44 88  1  0  0  0  0
 44 89  1  0  0  0  0
 45 46  1  0  0  0  0
 45 90  1  0  0  0  0
 46 47  1  0  0  0  0
 46 48  1  0  0  0  0
 46 49  1  0  0  0  0
 47 91  1  0  0  0  0
 47 92  1  0  0  0  0
 47 93  1  0  0  0  0
 48 94  1  0  0  0  0
 48 95  1  0  0  0  0
 48 96  1  0  0  0  0
 49 97  1  0  0  0  0
 49 98  1  0  0  0  0
 49 99  1  0  0  0  0
M  CHG  1  32   1
M  END
$$$$
