RSV
 OpenBabel04091915033D

 26 28  0  0  0  0  0  0  0  0999 V2000
   68.7677   50.1594    8.6233 C   0  0  0  0  0  0  0  0  0  0  0  0
   69.1971   49.0492    9.3880 C   0  0  0  0  0  0  0  0  0  0  0  0
   69.9229   49.2242   10.5616 C   0  0  0  0  0  0  0  0  0  0  0  0
   70.9115   50.7436   12.2167 C   0  0  0  0  0  0  0  0  0  0  0  0
   70.5309   51.7794   13.1039 C   0  0  0  0  0  0  0  0  0  0  0  0
   71.9738   50.0001   12.6915 C   0  0  0  0  0  0  0  0  0  0  0  0
   68.0737   50.0213    7.4944 N   0  0  0  0  0  0  0  0  0  0  0  0
   67.7746   48.7705    7.0648 C   0  0  0  0  0  0  0  0  0  0  0  0
   68.8828   47.7727    8.9398 C   0  0  0  0  0  0  0  0  0  0  0  0
   68.1622   47.6338    7.7622 C   0  0  0  0  0  0  0  0  0  0  0  0
   67.0700   48.6490    5.9046 N   0  0  0  0  0  0  0  0  0  0  0  0
   69.0776   51.4391    9.0758 C   0  0  0  0  0  0  0  0  0  0  0  0
   69.8122   51.6275   10.2549 C   0  0  0  0  0  0  0  0  0  0  0  0
   70.2353   50.5123   10.9754 C   0  0  0  0  0  0  0  0  0  0  0  0
   71.3030   51.8361   14.2315 C   0  0  0  0  0  0  0  0  0  0  0  0
   72.4993   50.5919   14.2177 S   0  0  0  0  0  0  0  0  0  0  0  0
   70.2203   48.3734   11.1631 H   0  0  0  0  0  0  0  0  0  0  0  0
   69.7050   52.4502   12.8989 H   0  0  0  0  0  0  0  0  0  0  0  0
   72.4472   49.1551   12.2043 H   0  0  0  0  0  0  0  0  0  0  0  0
   69.1959   46.8952    9.4876 H   0  0  0  0  0  0  0  0  0  0  0  0
   67.9055   46.6430    7.3892 H   0  0  0  0  0  0  0  0  0  0  0  0
   66.8124   47.7514    5.5400 H   0  0  0  0  0  0  0  0  0  0  0  0
   66.8098   49.5014    5.4191 H   0  0  0  0  0  0  0  0  0  0  0  0
   68.7544   52.3053    8.5155 H   0  0  0  0  0  0  0  0  0  0  0  0
   70.0249   52.6331   10.5845 H   0  0  0  0  0  0  0  0  0  0  0  0
   71.1828   52.5501   15.0296 H   0  0  0  0  0  0  0  0  0  0  0  0
  1  2  2  0  0  0  0
  1  7  1  0  0  0  0
  1 12  1  0  0  0  0
  2  3  1  0  0  0  0
  2  9  1  0  0  0  0
  3 14  2  0  0  0  0
  3 17  1  0  0  0  0
  4  5  1  0  0  0  0
  4  6  2  0  0  0  0
  4 14  1  0  0  0  0
  5 15  2  0  0  0  0
  5 18  1  0  0  0  0
  6 16  1  0  0  0  0
  6 19  1  0  0  0  0
  7  8  2  0  0  0  0
  8 10  1  0  0  0  0
  8 11  1  0  0  0  0
  9 10  2  0  0  0  0
  9 20  1  0  0  0  0
 10 21  1  0  0  0  0
 11 22  1  0  0  0  0
 11 23  1  0  0  0  0
 12 13  2  0  0  0  0
 12 24  1  0  0  0  0
 13 14  1  0  0  0  0
 13 25  1  0  0  0  0
 15 16  1  0  0  0  0
 15 26  1  0  0  0  0
M  END
$$$$
