RX4
 OpenBabel04091914093D

 63 63  0  0  1  0  0  0  0  0999 V2000
   -7.5474  -19.2826  -23.2481 C   0  0  0  0  0  0  0  0  0  0  0  0
   -7.8593  -18.2926  -22.1627 C   0  0  0  0  0  0  0  0  0  0  0  0
   -8.3671  -19.4859  -24.1534 O   0  0  0  0  0  0  0  0  0  0  0  0
   -4.1913  -18.9620  -23.1438 C   0  0  0  0  0  0  0  0  0  0  0  0
   -4.1385  -19.0214  -24.3762 O   0  0  0  0  0  0  0  0  0  0  0  0
   -5.2234  -19.8042  -22.3404 C   0  0  2  0  0  0  0  0  0  0  0  0
   -4.6489  -21.1465  -21.9273 C   0  0  0  0  0  0  0  0  0  0  0  0
   -5.7163  -21.8021  -21.0631 C   0  0  0  0  0  0  0  0  0  0  0  0
   -5.9832  -21.2077  -19.9788 O   0  0  0  0  0  0  0  0  0  0  0  0
   -6.2072  -22.8718  -21.5245 O   0  0  0  0  0  0  0  0  0  0  0  0
   -6.3793  -19.9729  -23.2210 N   0  0  0  0  0  0  0  0  0  0  0  0
   -5.2094  -15.3433  -22.0770 C   0  0  0  0  0  0  0  0  0  0  0  0
   -6.5037  -14.9882  -22.4505 C   0  0  0  0  0  0  0  0  0  0  0  0
   -6.7701  -14.5950  -23.7609 C   0  0  0  0  0  0  0  0  0  0  0  0
   -5.7394  -14.5493  -24.6982 C   0  0  0  0  0  0  0  0  0  0  0  0
   -4.4420  -14.8989  -24.3254 C   0  0  0  0  0  0  0  0  0  0  0  0
   -4.1666  -15.2977  -23.0099 C   0  0  0  0  0  0  0  0  0  0  0  0
   -2.7763  -15.7411  -22.6155 C   0  0  0  0  0  0  0  0  0  0  0  0
   -2.4625  -17.1890  -23.0217 C   0  0  1  0  0  0  0  0  0  0  0  0
   -0.7593  -17.7159  -22.5022 P   0  0  2  0  0  0  0  0  0  0  0  0
   -0.4151  -19.0628  -23.1013 O   0  0  0  0  0  0  0  0  0  0  0  0
   -0.6053  -17.4757  -21.0121 O   0  0  0  0  0  0  0  0  0  0  0  0
   -3.4265  -18.1123  -22.3977 N   0  0  0  0  0  0  0  0  0  0  0  0
    0.3014  -16.5128  -23.3866 C   0  0  0  0  0  0  0  0  0  0  0  0
    1.6686  -16.4059  -22.7161 C   0  0  1  0  0  0  0  0  0  0  0  0
    2.7471  -16.0911  -23.7507 C   0  0  0  0  0  0  0  0  0  0  0  0
    1.6648  -15.3125  -21.6548 C   0  0  0  0  0  0  0  0  0  0  0  0
    0.8998  -14.3461  -21.6461 O   0  0  0  0  0  0  0  0  0  0  0  0
    2.7363  -15.3898  -20.7868 N   0  0  0  0  0  0  0  0  0  0  0  0
    2.9457  -14.3675  -19.7843 C   0  0  1  0  0  0  0  0  0  0  0  0
    4.0316  -14.7867  -18.8008 C   0  0  0  0  0  0  0  0  0  0  0  0
    3.3859  -13.0563  -20.4626 C   0  0  0  0  0  0  0  0  0  0  0  0
    4.0754  -12.9864  -21.4790 O   0  0  0  0  0  0  0  0  0  0  0  0
    3.0681  -11.9088  -19.7832 N   0  0  0  0  0  0  0  0  0  0  0  0
   -7.0322  -18.0798  -21.4930 H   0  0  0  0  0  0  0  0  0  0  0  0
   -8.6963  -18.6663  -21.5719 H   0  0  0  0  0  0  0  0  0  0  0  0
   -8.1423  -17.3506  -22.6404 H   0  0  0  0  0  0  0  0  0  0  0  0
   -5.4897  -19.2217  -21.4488 H   0  0  0  0  0  0  0  0  0  0  0  0
   -3.7300  -21.0291  -21.3441 H   0  0  0  0  0  0  0  0  0  0  0  0
   -4.4096  -21.7633  -22.8034 H   0  0  0  0  0  0  0  0  0  0  0  0
   -6.2295  -20.5713  -24.0242 H   0  0  0  0  0  0  0  0  0  0  0  0
   -5.0161  -15.6947  -21.0661 H   0  0  0  0  0  0  0  0  0  0  0  0
   -7.3087  -15.0594  -21.7255 H   0  0  0  0  0  0  0  0  0  0  0  0
   -7.7857  -14.3538  -24.0576 H   0  0  0  0  0  0  0  0  0  0  0  0
   -5.9484  -14.2693  -25.7259 H   0  0  0  0  0  0  0  0  0  0  0  0
   -3.6488  -14.8920  -25.0695 H   0  0  0  0  0  0  0  0  0  0  0  0
   -2.6383  -15.6102  -21.5308 H   0  0  0  0  0  0  0  0  0  0  0  0
   -2.0754  -15.0379  -23.0779 H   0  0  0  0  0  0  0  0  0  0  0  0
   -2.5063  -17.2861  -24.1119 H   0  0  0  0  0  0  0  0  0  0  0  0
   -3.3476  -18.2264  -21.3946 H   0  0  0  0  0  0  0  0  0  0  0  0
   -0.1774  -15.5365  -23.4370 H   0  0  0  0  0  0  0  0  0  0  0  0
    0.3863  -16.8675  -24.4200 H   0  0  0  0  0  0  0  0  0  0  0  0
    1.9161  -17.3591  -22.2321 H   0  0  0  0  0  0  0  0  0  0  0  0
    3.7376  -16.0280  -23.2884 H   0  0  0  0  0  0  0  0  0  0  0  0
    2.5498  -15.1323  -24.2426 H   0  0  0  0  0  0  0  0  0  0  0  0
    2.7866  -16.8703  -24.5190 H   0  0  0  0  0  0  0  0  0  0  0  0
    3.2995  -16.2307  -20.7983 H   0  0  0  0  0  0  0  0  0  0  0  0
    1.9988  -14.2044  -19.2542 H   0  0  0  0  0  0  0  0  0  0  0  0
    4.1940  -14.0184  -18.0365 H   0  0  0  0  0  0  0  0  0  0  0  0
    4.9858  -14.9408  -19.3204 H   0  0  0  0  0  0  0  0  0  0  0  0
    3.7720  -15.7253  -18.2993 H   0  0  0  0  0  0  0  0  0  0  0  0
    3.2174  -11.0579  -20.3097 H   0  0  0  0  0  0  0  0  0  0  0  0
    2.2989  -11.9157  -19.1259 H   0  0  0  0  0  0  0  0  0  0  0  0
  1  2  1  0  0  0  0
  1  3  2  0  0  0  0
  1 11  1  0  0  0  0
  2 35  1  0  0  0  0
  2 36  1  0  0  0  0
  2 37  1  0  0  0  0
  4  5  2  0  0  0  0
  4  6  1  0  0  0  0
  4 23  1  0  0  0  0
  6  7  1  0  0  0  0
  6 11  1  0  0  0  0
  6 38  1  1  0  0  0
  7  8  1  0  0  0  0
  7 39  1  0  0  0  0
  7 40  1  0  0  0  0
  8  9  2  0  0  0  0
  8 10  1  0  0  0  0
 11 41  1  0  0  0  0
 12 13  2  0  0  0  0
 12 17  1  0  0  0  0
 12 42  1  0  0  0  0
 13 14  1  0  0  0  0
 13 43  1  0  0  0  0
 14 15  2  0  0  0  0
 14 44  1  0  0  0  0
 15 16  1  0  0  0  0
 15 45  1  0  0  0  0
 16 17  2  0  0  0  0
 16 46  1  0  0  0  0
 17 18  1  0  0  0  0
 18 19  1  0  0  0  0
 18 47  1  0  0  0  0
 18 48  1  0  0  0  0
 19 20  1  0  0  0  0
 19 23  1  0  0  0  0
 19 49  1  6  0  0  0
 20 21  2  6  0  0  0
 20 22  1  0  0  0  0
 20 24  1  0  0  0  0
 23 50  1  0  0  0  0
 24 25  1  0  0  0  0
 24 51  1  0  0  0  0
 24 52  1  0  0  0  0
 25 26  1  0  0  0  0
 25 27  1  0  0  0  0
 25 53  1  1  0  0  0
 26 54  1  0  0  0  0
 26 55  1  0  0  0  0
 26 56  1  0  0  0  0
 27 28  2  0  0  0  0
 27 29  1  0  0  0  0
 29 30  1  0  0  0  0
 29 57  1  0  0  0  0
 30 31  1  0  0  0  0
 30 32  1  0  0  0  0
 30 58  1  1  0  0  0
 31 59  1  0  0  0  0
 31 60  1  0  0  0  0
 31 61  1  0  0  0  0
 32 33  2  0  0  0  0
 32 34  1  0  0  0  0
 34 62  1  0  0  0  0
 34 63  1  0  0  0  0
M  END
$$$$
