RYV
 OpenBabel04091915063D

 27 27  0  0  0  0  0  0  0  0999 V2000
   15.0607    0.0139   16.8520 S   0  0  0  0  0  0  0  0  0  0  0  0
   18.6990    4.7434   13.5214 N   0  0  0  0  0  0  0  0  0  0  0  0
   16.6131    5.6921   13.6417 O   0  0  0  0  0  0  0  0  0  0  0  0
   16.8509    3.5621   14.6242 C   0  0  0  0  0  0  0  0  0  0  0  0
   14.9092    2.3949   15.5053 C   0  0  0  0  0  0  0  0  0  0  0  0
   15.4643    3.4847   14.8349 C   0  0  0  0  0  0  0  0  0  0  0  0
   15.7459    1.3850   15.9845 C   0  0  0  0  0  0  0  0  0  0  0  0
   17.6799    2.5446   15.1186 C   0  0  0  0  0  0  0  0  0  0  0  0
   17.1285    1.4577   15.8017 C   0  0  0  0  0  0  0  0  0  0  0  0
   17.3679    4.7517   13.8916 C   0  0  0  0  0  0  0  0  0  0  0  0
   19.2956    5.9077   12.9041 C   0  0  0  0  0  0  0  0  0  0  0  0
   13.6228    0.0078   16.6564 O   0  0  0  0  0  0  0  0  0  0  0  0
   19.5003    7.0105   13.9275 C   0  0  0  0  0  0  0  0  0  0  0  0
   15.6527   -0.0235   18.1671 O   0  0  0  0  0  0  0  0  0  0  0  0
   15.6225   -1.3030   16.0054 N   0  0  0  0  0  0  0  0  0  0  0  0
   19.3172    4.0008   13.7916 H   0  0  0  0  0  0  0  0  0  0  0  0
   13.8333    2.3508   15.6587 H   0  0  0  0  0  0  0  0  0  0  0  0
   14.8112    4.2809   14.4799 H   0  0  0  0  0  0  0  0  0  0  0  0
   18.7572    2.5728   15.0088 H   0  0  0  0  0  0  0  0  0  0  0  0
   17.7817    0.6847   16.1998 H   0  0  0  0  0  0  0  0  0  0  0  0
   18.6493    6.2497   12.0896 H   0  0  0  0  0  0  0  0  0  0  0  0
   20.2543    5.5961   12.4777 H   0  0  0  0  0  0  0  0  0  0  0  0
   19.9611    7.8861   13.4648 H   0  0  0  0  0  0  0  0  0  0  0  0
   20.1411    6.6632   14.7439 H   0  0  0  0  0  0  0  0  0  0  0  0
   18.5477    7.3204   14.3697 H   0  0  0  0  0  0  0  0  0  0  0  0
   15.4816   -2.2092   16.4449 H   0  0  0  0  0  0  0  0  0  0  0  0
   16.3031   -1.1882   15.2601 H   0  0  0  0  0  0  0  0  0  0  0  0
  1  7  1  0  0  0  0
  1 12  2  0  0  0  0
  1 14  2  0  0  0  0
  1 15  1  0  0  0  0
  2 10  1  0  0  0  0
  2 11  1  0  0  0  0
  2 16  1  0  0  0  0
  3 10  2  0  0  0  0
  4  6  2  0  0  0  0
  4  8  1  0  0  0  0
  4 10  1  0  0  0  0
  5  6  1  0  0  0  0
  5  7  2  0  0  0  0
  5 17  1  0  0  0  0
  6 18  1  0  0  0  0
  7  9  1  0  0  0  0
  8  9  2  0  0  0  0
  8 19  1  0  0  0  0
  9 20  1  0  0  0  0
 11 13  1  0  0  0  0
 11 21  1  0  0  0  0
 11 22  1  0  0  0  0
 13 23  1  0  0  0  0
 13 24  1  0  0  0  0
 13 25  1  0  0  0  0
 15 26  1  0  0  0  0
 15 27  1  0  0  0  0
M  END
$$$$
