RZ0
 OpenBabel04091915083D

 33 33  0  0  0  0  0  0  0  0999 V2000
   15.2666    0.2729   17.0265 S   0  0  0  0  0  0  0  0  0  0  0  0
   18.4788    5.2197   13.3843 N   0  0  0  0  0  0  0  0  0  0  0  0
   16.5242    5.9286   13.7336 O   0  0  0  0  0  0  0  0  0  0  0  0
   16.9298    3.8614   14.8155 C   0  0  0  0  0  0  0  0  0  0  0  0
   17.3062    1.7462   15.9010 C   0  0  0  0  0  0  0  0  0  0  0  0
   17.8002    2.8419   15.2061 C   0  0  0  0  0  0  0  0  0  0  0  0
   15.9321    1.6406   16.1384 C   0  0  0  0  0  0  0  0  0  0  0  0
   15.5462    3.7457   15.0776 C   0  0  0  0  0  0  0  0  0  0  0  0
   15.0427    2.6271   15.7225 C   0  0  0  0  0  0  0  0  0  0  0  0
   17.3248    5.0383   14.0502 C   0  0  0  0  0  0  0  0  0  0  0  0
   19.8921    5.2444   13.3151 C   0  0  0  0  0  0  0  0  0  0  0  0
   13.8792    0.2723   16.8341 O   0  0  0  0  0  0  0  0  0  0  0  0
   20.0998    6.7701   13.1465 C   0  0  0  0  0  0  0  0  0  0  0  0
   15.8840    0.2711   18.3489 O   0  0  0  0  0  0  0  0  0  0  0  0
   19.7426    7.5161   14.4449 C   0  0  0  0  0  0  0  0  0  0  0  0
   15.8599   -1.0527   16.2399 N   0  0  0  0  0  0  0  0  0  0  0  0
   20.5075    8.8109   14.6172 C   0  0  0  0  0  0  0  0  0  0  0  0
   18.1286    5.8882   12.7253 H   0  0  0  0  0  0  0  0  0  0  0  0
   17.9805    0.9817   16.2949 H   0  0  0  0  0  0  0  0  0  0  0  0
   18.8583    2.9176   14.9855 H   0  0  0  0  0  0  0  0  0  0  0  0
   14.8660    4.5348   14.7771 H   0  0  0  0  0  0  0  0  0  0  0  0
   13.9779    2.5424   15.9394 H   0  0  0  0  0  0  0  0  0  0  0  0
   20.1381    4.6861   12.3953 H   0  0  0  0  0  0  0  0  0  0  0  0
   20.4129    4.8196   14.1824 H   0  0  0  0  0  0  0  0  0  0  0  0
   19.4064    7.1345   12.3487 H   0  0  0  0  0  0  0  0  0  0  0  0
   21.1034    6.9661   12.8051 H   0  0  0  0  0  0  0  0  0  0  0  0
   19.9633    6.8702   15.3007 H   0  0  0  0  0  0  0  0  0  0  0  0
   18.6688    7.7514   14.4780 H   0  0  0  0  0  0  0  0  0  0  0  0
   15.6011   -1.9528   16.6620 H   0  0  0  0  0  0  0  0  0  0  0  0
   16.4715   -0.9688   15.4535 H   0  0  0  0  0  0  0  0  0  0  0  0
   20.2399    9.2881   15.5670 H   0  0  0  0  0  0  0  0  0  0  0  0
   20.2816    9.5099   13.8078 H   0  0  0  0  0  0  0  0  0  0  0  0
   21.5833    8.6177   14.6278 H   0  0  0  0  0  0  0  0  0  0  0  0
  1  7  1  0  0  0  0
  1 12  2  0  0  0  0
  1 14  2  0  0  0  0
  1 16  1  0  0  0  0
  2 10  1  0  0  0  0
  2 11  1  0  0  0  0
  2 18  1  0  0  0  0
  3 10  2  0  0  0  0
  4  6  2  0  0  0  0
  4  8  1  0  0  0  0
  4 10  1  0  0  0  0
  5  6  1  0  0  0  0
  5  7  2  0  0  0  0
  5 19  1  0  0  0  0
  6 20  1  0  0  0  0
  7  9  1  0  0  0  0
  8  9  2  0  0  0  0
  8 21  1  0  0  0  0
  9 22  1  0  0  0  0
 11 13  1  0  0  0  0
 11 23  1  0  0  0  0
 11 24  1  0  0  0  0
 13 15  1  0  0  0  0
 13 25  1  0  0  0  0
 13 26  1  0  0  0  0
 15 17  1  0  0  0  0
 15 27  1  0  0  0  0
 15 28  1  0  0  0  0
 16 29  1  0  0  0  0
 16 30  1  0  0  0  0
 17 31  1  0  0  0  0
 17 32  1  0  0  0  0
 17 33  1  0  0  0  0
M  END
$$$$
