RZ7
 OpenBabel04091915083D

 39 39  0  0  0  0  0  0  0  0999 V2000
   15.0448    0.9717   16.9529 S   0  0  0  0  0  0  0  0  0  0  0  0
   18.3786    5.7153   13.4398 N   0  0  0  0  0  0  0  0  0  0  0  0
   16.3341    6.6527   13.5695 O   0  0  0  0  0  0  0  0  0  0  0  0
   16.5859    4.5462   14.5972 C   0  0  0  0  0  0  0  0  0  0  0  0
   17.0466    2.4873   15.8064 C   0  0  0  0  0  0  0  0  0  0  0  0
   17.4872    3.5934   15.0786 C   0  0  0  0  0  0  0  0  0  0  0  0
   15.6785    2.3318   16.0204 C   0  0  0  0  0  0  0  0  0  0  0  0
   15.2178    4.3833   14.8317 C   0  0  0  0  0  0  0  0  0  0  0  0
   14.7755    3.2792   15.5553 C   0  0  0  0  0  0  0  0  0  0  0  0
   17.0520    5.7514   13.8393 C   0  0  0  0  0  0  0  0  0  0  0  0
   20.5622    7.2716   14.2944 F   0  0  0  0  0  0  0  0  0  0  0  0
   18.8611    9.5315   12.1569 F   0  0  0  0  0  0  0  0  0  0  0  0
   20.6169    9.7612   15.2444 F   0  0  0  0  0  0  0  0  0  0  0  0
   21.2757   11.2858   12.3482 F   0  0  0  0  0  0  0  0  0  0  0  0
   22.9017   11.2545   15.5097 F   0  0  0  0  0  0  0  0  0  0  0  0
   18.6443    8.2506   14.6076 F   0  0  0  0  0  0  0  0  0  0  0  0
   20.8752    8.8088   11.9923 F   0  0  0  0  0  0  0  0  0  0  0  0
   19.2629   11.0566   14.0843 F   0  0  0  0  0  0  0  0  0  0  0  0
   22.3334    9.6450   13.5044 F   0  0  0  0  0  0  0  0  0  0  0  0
   21.2563   12.6093   15.0195 F   0  0  0  0  0  0  0  0  0  0  0  0
   23.0498   12.5315   13.7760 F   0  0  0  0  0  0  0  0  0  0  0  0
   18.9057    6.8497   12.7027 C   0  0  0  0  0  0  0  0  0  0  0  0
   13.5965    0.8878   16.7293 O   0  0  0  0  0  0  0  0  0  0  0  0
   19.5206    7.8637   13.6480 C   0  0  0  0  0  0  0  0  0  0  0  0
   15.6111    1.0249   18.2420 O   0  0  0  0  0  0  0  0  0  0  0  0
   19.9216    9.1001   12.9194 C   0  0  0  0  0  0  0  0  0  0  0  0
   15.6697   -0.3620   16.1949 N   0  0  0  0  0  0  0  0  0  0  0  0
   20.2776   10.1739   13.9973 C   0  0  0  0  0  0  0  0  0  0  0  0
   21.5294   10.7621   13.5707 C   0  0  0  0  0  0  0  0  0  0  0  0
   22.1739   11.7714   14.4878 C   0  0  0  0  0  0  0  0  0  0  0  0
   19.0001    4.9829   13.7267 H   0  0  0  0  0  0  0  0  0  0  0  0
   17.7703    1.7885   16.2100 H   0  0  0  0  0  0  0  0  0  0  0  0
   18.5479    3.6921   14.8837 H   0  0  0  0  0  0  0  0  0  0  0  0
   14.4890    5.0896   14.4414 H   0  0  0  0  0  0  0  0  0  0  0  0
   13.7159    3.1737   15.7803 H   0  0  0  0  0  0  0  0  0  0  0  0
   18.0928    7.3113   12.1365 H   0  0  0  0  0  0  0  0  0  0  0  0
   19.6531    6.4672   11.9994 H   0  0  0  0  0  0  0  0  0  0  0  0
   15.4354   -1.2740   16.5806 H   0  0  0  0  0  0  0  0  0  0  0  0
   16.3151   -0.2618   15.4201 H   0  0  0  0  0  0  0  0  0  0  0  0
  1  7  1  0  0  0  0
  1 23  2  0  0  0  0
  1 25  2  0  0  0  0
  1 27  1  0  0  0  0
  2 10  1  0  0  0  0
  2 22  1  0  0  0  0
  2 31  1  0  0  0  0
  3 10  2  0  0  0  0
  4  6  2  0  0  0  0
  4  8  1  0  0  0  0
  4 10  1  0  0  0  0
  5  6  1  0  0  0  0
  5  7  2  0  0  0  0
  5 32  1  0  0  0  0
  6 33  1  0  0  0  0
  7  9  1  0  0  0  0
  8  9  2  0  0  0  0
  8 34  1  0  0  0  0
  9 35  1  0  0  0  0
 11 24  1  0  0  0  0
 12 26  1  0  0  0  0
 13 28  1  0  0  0  0
 14 29  1  0  0  0  0
 15 30  1  0  0  0  0
 16 24  1  0  0  0  0
 17 26  1  0  0  0  0
 18 28  1  0  0  0  0
 19 29  1  0  0  0  0
 20 30  1  0  0  0  0
 21 30  1  0  0  0  0
 22 24  1  0  0  0  0
 22 36  1  0  0  0  0
 22 37  1  0  0  0  0
 24 26  1  0  0  0  0
 26 28  1  0  0  0  0
 27 38  1  0  0  0  0
 27 39  1  0  0  0  0
 28 29  1  0  0  0  0
 29 30  1  0  0  0  0
M  END
$$$$
