RZ8
 OpenBabel04091915093D

 39 39  0  0  0  0  0  0  0  0999 V2000
   14.9286    0.9684   16.9309 S   0  0  0  0  0  0  0  0  0  0  0  0
   18.4016    5.5888   13.3133 N   0  0  0  0  0  0  0  0  0  0  0  0
   16.3872    6.6453   13.5954 O   0  0  0  0  0  0  0  0  0  0  0  0
   16.6312    4.5105   14.5958 C   0  0  0  0  0  0  0  0  0  0  0  0
   14.7376    3.3346   15.5598 C   0  0  0  0  0  0  0  0  0  0  0  0
   15.2559    4.4136   14.8420 C   0  0  0  0  0  0  0  0  0  0  0  0
   15.6016    2.3476   16.0438 C   0  0  0  0  0  0  0  0  0  0  0  0
   17.4933    3.5258   15.1166 C   0  0  0  0  0  0  0  0  0  0  0  0
   16.9806    2.4454   15.8431 C   0  0  0  0  0  0  0  0  0  0  0  0
   17.1167    5.6737   13.7915 C   0  0  0  0  0  0  0  0  0  0  0  0
   19.0563    6.6605   12.5944 C   0  0  0  0  0  0  0  0  0  0  0  0
   13.4890    1.0099   16.8508 O   0  0  0  0  0  0  0  0  0  0  0  0
   20.2163    7.1993   13.4335 C   0  0  0  0  0  0  0  0  0  0  0  0
   15.6333    0.8749   18.1890 O   0  0  0  0  0  0  0  0  0  0  0  0
   19.7835    8.3888   14.2942 C   0  0  0  0  0  0  0  0  0  0  0  0
   15.4334   -0.3541   16.0151 N   0  0  0  0  0  0  0  0  0  0  0  0
   19.8955    9.6679   13.4687 C   0  0  0  0  0  0  0  0  0  0  0  0
   19.3581   10.8931   14.1932 C   0  0  0  0  0  0  0  0  0  0  0  0
   19.1767   12.0349   13.2047 C   0  0  0  0  0  0  0  0  0  0  0  0
   18.9654    4.7709   13.4820 H   0  0  0  0  0  0  0  0  0  0  0  0
   13.6660    3.2761   15.7387 H   0  0  0  0  0  0  0  0  0  0  0  0
   14.5778    5.1798   14.4670 H   0  0  0  0  0  0  0  0  0  0  0  0
   18.5694    3.5798   14.9928 H   0  0  0  0  0  0  0  0  0  0  0  0
   17.6591    1.7035   16.2564 H   0  0  0  0  0  0  0  0  0  0  0  0
   18.3382    7.4415   12.3243 H   0  0  0  0  0  0  0  0  0  0  0  0
   19.4393    6.2202   11.6681 H   0  0  0  0  0  0  0  0  0  0  0  0
   21.0315    7.5065   12.7666 H   0  0  0  0  0  0  0  0  0  0  0  0
   20.6206    6.4106   14.0793 H   0  0  0  0  0  0  0  0  0  0  0  0
   20.4270    8.4623   15.1781 H   0  0  0  0  0  0  0  0  0  0  0  0
   18.7572    8.2498   14.6566 H   0  0  0  0  0  0  0  0  0  0  0  0
   15.6401   -1.1382   16.6364 H   0  0  0  0  0  0  0  0  0  0  0  0
   16.2216   -0.1480   15.4027 H   0  0  0  0  0  0  0  0  0  0  0  0
   19.3594    9.5377   12.5216 H   0  0  0  0  0  0  0  0  0  0  0  0
   20.9495    9.8381   13.2128 H   0  0  0  0  0  0  0  0  0  0  0  0
   20.0541   11.1920   14.9850 H   0  0  0  0  0  0  0  0  0  0  0  0
   18.3962   10.6694   14.6685 H   0  0  0  0  0  0  0  0  0  0  0  0
   18.8191   12.9324   13.7148 H   0  0  0  0  0  0  0  0  0  0  0  0
   18.4418   11.7641   12.4378 H   0  0  0  0  0  0  0  0  0  0  0  0
   20.1196   12.2743   12.7011 H   0  0  0  0  0  0  0  0  0  0  0  0
  1  7  1  0  0  0  0
  1 12  2  0  0  0  0
  1 14  2  0  0  0  0
  1 16  1  0  0  0  0
  2 10  1  0  0  0  0
  2 11  1  0  0  0  0
  2 20  1  0  0  0  0
  3 10  2  0  0  0  0
  4  6  2  0  0  0  0
  4  8  1  0  0  0  0
  4 10  1  0  0  0  0
  5  6  1  0  0  0  0
  5  7  2  0  0  0  0
  5 21  1  0  0  0  0
  6 22  1  0  0  0  0
  7  9  1  0  0  0  0
  8  9  2  0  0  0  0
  8 23  1  0  0  0  0
  9 24  1  0  0  0  0
 11 13  1  0  0  0  0
 11 25  1  0  0  0  0
 11 26  1  0  0  0  0
 13 15  1  0  0  0  0
 13 27  1  0  0  0  0
 13 28  1  0  0  0  0
 15 17  1  0  0  0  0
 15 29  1  0  0  0  0
 15 30  1  0  0  0  0
 16 31  1  0  0  0  0
 16 32  1  0  0  0  0
 17 18  1  0  0  0  0
 17 33  1  0  0  0  0
 17 34  1  0  0  0  0
 18 19  1  0  0  0  0
 18 35  1  0  0  0  0
 18 36  1  0  0  0  0
 19 37  1  0  0  0  0
 19 38  1  0  0  0  0
 19 39  1  0  0  0  0
M  END
$$$$
