S1P
 OpenBabel04091913063D

 62 61  0  0  1  0  0  0  0  0999 V2000
    1.1961   14.7491   38.5803 C   0  0  0  0  0  0  0  0  0  0  0  0
    2.5722   15.0253   38.4656 O   0  0  0  0  0  0  0  0  0  0  0  0
    0.6900   14.3366   37.2073 C   0  0  2  0  0  0  0  0  0  0  0  0
    1.3671   13.0923   36.7504 N   0  3  0  0  0  0  0  0  0  0  0  0
    0.9152   15.4456   36.1645 C   0  0  2  0  0  0  0  0  0  0  0  0
    0.0510   16.5377   36.4268 O   0  0  0  0  0  0  0  0  0  0  0  0
    0.6144   14.9795   34.7650 C   0  0  0  0  0  0  0  0  0  0  0  0
    1.5798   14.9745   33.8207 C   0  0  0  0  0  0  0  0  0  0  0  0
    1.3235   14.5368   32.4291 C   0  0  0  0  0  0  0  0  0  0  0  0
    1.7228   15.6462   31.4889 C   0  0  0  0  0  0  0  0  0  0  0  0
    0.5191   16.0778   30.6846 C   0  0  0  0  0  0  0  0  0  0  0  0
   -0.2147   17.3124   31.1959 C   0  0  0  0  0  0  0  0  0  0  0  0
   -0.6942   18.0511   29.9528 C   0  0  0  0  0  0  0  0  0  0  0  0
   -2.1862   17.9844   29.6929 C   0  0  0  0  0  0  0  0  0  0  0  0
   -2.4683   18.5424   28.2872 C   0  0  0  0  0  0  0  0  0  0  0  0
   -3.4845   19.6711   28.3862 C   0  0  0  0  0  0  0  0  0  0  0  0
   -3.5289   20.6211   27.1957 C   0  0  0  0  0  0  0  0  0  0  0  0
   -2.7311   21.9103   27.4138 C   0  0  0  0  0  0  0  0  0  0  0  0
   -3.1644   22.7398   28.6251 C   0  0  0  0  0  0  0  0  0  0  0  0
   -2.2554   23.9511   28.7909 C   0  0  0  0  0  0  0  0  0  0  0  0
   -2.8151   24.9550   29.7775 C   0  0  0  0  0  0  0  0  0  0  0  0
    3.6685   14.2530   39.4221 P   0  0  0  0  0  0  0  0  0  0  0  0
    3.0069   14.3524   40.8286 O   0  0  0  0  0  0  0  0  0  0  0  0
    4.9075   15.0648   39.1946 O   0  0  0  0  0  0  0  0  0  0  0  0
    3.6603   12.8731   38.8261 O   0  0  0  0  0  0  0  0  0  0  0  0
    0.6629   15.6507   38.8852 H   0  0  0  0  0  0  0  0  0  0  0  0
    0.9922   13.9532   39.3005 H   0  0  0  0  0  0  0  0  0  0  0  0
   -0.3815   14.0986   37.2474 H   0  0  0  0  0  0  0  0  0  0  0  0
    1.0756   12.7970   35.8313 H   0  0  0  0  0  0  0  0  0  0  0  0
    2.4029   13.2686   36.7778 H   0  0  0  0  0  0  0  0  0  0  0  0
    1.9533   15.7946   36.2133 H   0  0  0  0  0  0  0  0  0  0  0  0
   -0.8736   16.2205   36.3965 H   0  0  0  0  0  0  0  0  0  0  0  0
   -0.3699   14.5996   34.5166 H   0  0  0  0  0  0  0  0  0  0  0  0
    2.5589   15.3667   34.0689 H   0  0  0  0  0  0  0  0  0  0  0  0
    0.2497   14.2943   32.3168 H   0  0  0  0  0  0  0  0  0  0  0  0
    1.8701   13.6206   32.2170 H   0  0  0  0  0  0  0  0  0  0  0  0
    2.4888   15.2754   30.7930 H   0  0  0  0  0  0  0  0  0  0  0  0
    2.1557   16.4998   32.0216 H   0  0  0  0  0  0  0  0  0  0  0  0
   -0.2134   15.2696   30.6190 H   0  0  0  0  0  0  0  0  0  0  0  0
    0.8853   16.2579   29.6713 H   0  0  0  0  0  0  0  0  0  0  0  0
    0.4552   17.9589   31.7780 H   0  0  0  0  0  0  0  0  0  0  0  0
   -1.0559   17.0272   31.8429 H   0  0  0  0  0  0  0  0  0  0  0  0
   -0.2073   17.6366   29.0631 H   0  0  0  0  0  0  0  0  0  0  0  0
   -0.3791   19.0936   30.0169 H   0  0  0  0  0  0  0  0  0  0  0  0
   -2.7017   18.5771   30.4532 H   0  0  0  0  0  0  0  0  0  0  0  0
   -2.5519   16.9544   29.7690 H   0  0  0  0  0  0  0  0  0  0  0  0
   -2.8560   17.7379   27.6492 H   0  0  0  0  0  0  0  0  0  0  0  0
   -1.5396   18.9063   27.8306 H   0  0  0  0  0  0  0  0  0  0  0  0
   -3.2572   20.2308   29.2893 H   0  0  0  0  0  0  0  0  0  0  0  0
   -4.4700   19.2192   28.5215 H   0  0  0  0  0  0  0  0  0  0  0  0
   -4.5731   20.8919   27.0021 H   0  0  0  0  0  0  0  0  0  0  0  0
   -3.1441   20.1195   26.3015 H   0  0  0  0  0  0  0  0  0  0  0  0
   -2.8341   22.5393   26.5195 H   0  0  0  0  0  0  0  0  0  0  0  0
   -1.6721   21.6543   27.5239 H   0  0  0  0  0  0  0  0  0  0  0  0
   -3.1043   22.1483   29.5413 H   0  0  0  0  0  0  0  0  0  0  0  0
   -4.2025   23.0665   28.5012 H   0  0  0  0  0  0  0  0  0  0  0  0
   -2.1269   24.4448   27.8231 H   0  0  0  0  0  0  0  0  0  0  0  0
   -1.2709   23.6203   29.1426 H   0  0  0  0  0  0  0  0  0  0  0  0
   -2.1382   25.8100   29.8659 H   0  0  0  0  0  0  0  0  0  0  0  0
   -2.9340   24.5011   30.7648 H   0  0  0  0  0  0  0  0  0  0  0  0
   -3.7890   25.3205   29.4392 H   0  0  0  0  0  0  0  0  0  0  0  0
    1.2600   12.3453   37.4610 H   0  0  0  0  0  0  0  0  0  0  0  0
  1  2  1  0  0  0  0
  1  3  1  0  0  0  0
  1 26  1  0  0  0  0
  1 27  1  0  0  0  0
  2 22  1  0  0  0  0
  3  4  1  0  0  0  0
  3  5  1  0  0  0  0
  3 28  1  1  0  0  0
  4 29  1  0  0  0  0
  4 30  1  0  0  0  0
  4 62  1  0  0  0  0
  5  6  1  0  0  0  0
  5  7  1  0  0  0  0
  5 31  1  1  0  0  0
  6 32  1  0  0  0  0
  7  8  2  0  0  0  0
  7 33  1  0  0  0  0
  8  9  1  0  0  0  0
  8 34  1  0  0  0  0
  9 10  1  0  0  0  0
  9 35  1  0  0  0  0
  9 36  1  0  0  0  0
 10 11  1  0  0  0  0
 10 37  1  0  0  0  0
 10 38  1  0  0  0  0
 11 12  1  0  0  0  0
 11 39  1  0  0  0  0
 11 40  1  0  0  0  0
 12 13  1  0  0  0  0
 12 41  1  0  0  0  0
 12 42  1  0  0  0  0
 13 14  1  0  0  0  0
 13 43  1  0  0  0  0
 13 44  1  0  0  0  0
 14 15  1  0  0  0  0
 14 45  1  0  0  0  0
 14 46  1  0  0  0  0
 15 16  1  0  0  0  0
 15 47  1  0  0  0  0
 15 48  1  0  0  0  0
 16 17  1  0  0  0  0
 16 49  1  0  0  0  0
 16 50  1  0  0  0  0
 17 18  1  0  0  0  0
 17 51  1  0  0  0  0
 17 52  1  0  0  0  0
 18 19  1  0  0  0  0
 18 53  1  0  0  0  0
 18 54  1  0  0  0  0
 19 20  1  0  0  0  0
 19 55  1  0  0  0  0
 19 56  1  0  0  0  0
 20 21  1  0  0  0  0
 20 57  1  0  0  0  0
 20 58  1  0  0  0  0
 21 59  1  0  0  0  0
 21 60  1  0  0  0  0
 21 61  1  0  0  0  0
 22 23  2  0  0  0  0
 22 24  1  0  0  0  0
 22 25  1  0  0  0  0
M  CHG  1   4   1
M  END
$$$$
