SAH
 OpenBabel04091913343D

 28 30  0  0  1  0  0  0  0  0999 V2000
   21.6053   -7.9936    8.5448 C   0  0  0  0  0  0  0  0  0  0  0  0
   22.1692   -9.2598    8.9121 O   0  0  0  0  0  0  0  0  0  0  0  0
   21.3846   -7.1655    9.7929 C   0  0  1  0  0  0  0  0  0  0  0  0
   20.0562   -6.6510    9.8419 O   0  0  0  0  0  0  0  0  0  0  0  0
   21.7111   -8.0891   10.9534 C   0  0  1  0  0  0  0  0  0  0  0  0
   20.5271   -8.4930   11.6620 O   0  0  0  0  0  0  0  0  0  0  0  0
   22.4282   -9.2986   10.3377 C   0  0  2  0  0  0  0  0  0  0  0  0
   23.8582   -9.4350   10.5831 N   0  3  0  0  0  0  0  0  0  0  0  0
   24.7310  -10.1911    9.8323 C   0  0  0  0  0  0  0  0  0  0  0  0
   25.9567  -10.1800   10.3228 N   0  0  0  0  0  0  0  0  0  0  0  0
   25.8800   -9.4144   11.4683 C   0  0  0  0  0  0  0  0  0  0  0  0
   26.8323   -9.0105   12.4383 C   0  0  0  0  0  0  0  0  0  0  0  0
   28.1712   -9.3596   12.4037 N   0  0  0  0  0  0  0  0  0  0  0  0
   26.4323   -8.2328   13.4541 N   0  0  0  0  0  0  0  0  0  0  0  0
   25.1320   -7.8871   13.5316 C   0  0  0  0  0  0  0  0  0  0  0  0
   24.1437   -8.2262   12.6913 N   0  0  0  0  0  0  0  0  0  0  0  0
   24.5806   -8.9709   11.6612 C   0  0  0  0  0  0  0  0  0  0  0  0
   20.6719   -8.1498    7.9905 H   0  0  0  0  0  0  0  0  0  0  0  0
   22.3048   -7.4949    7.8654 H   0  0  0  0  0  0  0  0  0  0  0  0
   22.0647   -6.3060    9.7843 H   0  0  0  0  0  0  0  0  0  0  0  0
   19.4439   -7.3970    9.9587 H   0  0  0  0  0  0  0  0  0  0  0  0
   22.3096   -7.5348   11.6679 H   0  0  0  0  0  0  0  0  0  0  0  0
   19.9520   -8.9952   11.0662 H   0  0  0  0  0  0  0  0  0  0  0  0
   21.9809  -10.2343   10.6990 H   0  0  0  0  0  0  0  0  0  0  0  0
   24.4187  -10.7243    8.9421 H   0  0  0  0  0  0  0  0  0  0  0  0
   28.7526   -8.9941   13.1330 H   0  0  0  0  0  0  0  0  0  0  0  0
   28.5295   -9.9211   11.6509 H   0  0  0  0  0  0  0  0  0  0  0  0
   24.8522   -7.2516   14.3695 H   0  0  0  0  0  0  0  0  0  0  0  0
  1  2  1  0  0  0  0
  1  3  1  0  0  0  0
  1 18  1  0  0  0  0
  1 19  1  0  0  0  0
  2  7  1  0  0  0  0
  3  4  1  0  0  0  0
  3  5  1  0  0  0  0
  3 20  1  1  0  0  0
  4 21  1  0  0  0  0
  5  6  1  0  0  0  0
  5  7  1  0  0  0  0
  5 22  1  1  0  0  0
  6 23  1  0  0  0  0
  7  8  1  0  0  0  0
  7 24  1  1  0  0  0
  8  9  2  0  0  0  0
  8 17  1  0  0  0  0
  9 10  1  0  0  0  0
  9 25  1  0  0  0  0
 10 11  1  0  0  0  0
 11 12  2  0  0  0  0
 11 17  1  0  0  0  0
 12 13  1  0  0  0  0
 12 14  1  0  0  0  0
 13 26  1  0  0  0  0
 13 27  1  0  0  0  0
 14 15  2  0  0  0  0
 15 16  1  0  0  0  0
 15 28  1  0  0  0  0
 16 17  2  0  0  0  0
M  CHG  1   8   1
M  END
$$$$
