SG4
 OpenBabel04091915413D

 39 39  0  0  1  0  0  0  0  0999 V2000
   17.0573    2.2918   11.7525 C   0  0  2  0  0  0  0  0  0  0  0  0
   18.4352    2.0668   11.4927 O   0  0  0  0  0  0  0  0  0  0  0  0
   16.4240    3.4812   10.9839 C   0  0  2  0  0  0  0  0  0  0  0  0
   16.5183    3.3397    9.5596 O   0  0  0  0  0  0  0  0  0  0  0  0
   16.9665    4.8421   11.4548 C   0  0  1  0  0  0  0  0  0  0  0  0
   16.1361    5.9005   10.8696 O   0  0  0  0  0  0  0  0  0  0  0  0
   16.8954    4.9358   12.9891 C   0  0  2  0  0  0  0  0  0  0  0  0
   17.5948    6.1104   13.4710 O   0  0  0  0  0  0  0  0  0  0  0  0
   17.5026    3.6798   13.6496 C   0  0  2  0  0  0  0  0  0  0  0  0
   16.8727    2.4675   13.1667 O   0  0  0  0  0  0  0  0  0  0  0  0
   17.3679    3.7740   15.1809 C   0  0  0  0  0  0  0  0  0  0  0  0
   16.0202    4.0212   15.5505 O   0  0  0  0  0  0  0  0  0  0  0  0
   16.2326    3.6601   18.0026 O   0  0  0  0  0  0  0  0  0  0  0  0
   15.6834    1.6935   16.5579 N   0  0  0  0  0  0  0  0  0  0  0  0
   15.4159    3.3055   16.8555 S   0  0  0  0  0  0  0  0  0  0  0  0
   13.9882    3.4794   16.8671 O   0  0  0  0  0  0  0  0  0  0  0  0
   15.5869    7.1681   13.8053 O   0  0  0  0  0  0  0  0  0  0  0  0
   16.8001    7.1569   13.8612 C   0  0  0  0  0  0  0  0  0  0  0  0
   16.7895    6.8404   10.1340 C   0  0  0  0  0  0  0  0  0  0  0  0
   17.9900    6.8222    9.8819 O   0  0  0  0  0  0  0  0  0  0  0  0
   17.6048    8.3201   14.3543 C   0  0  0  0  0  0  0  0  0  0  0  0
   15.8899    7.9359    9.6448 C   0  0  0  0  0  0  0  0  0  0  0  0
   16.5312    1.3824   11.4360 H   0  0  0  0  0  0  0  0  0  0  0  0
   18.5964    1.1384   11.7431 H   0  0  0  0  0  0  0  0  0  0  0  0
   15.3540    3.4445   11.2114 H   0  0  0  0  0  0  0  0  0  0  0  0
   16.0596    4.1090    9.1712 H   0  0  0  0  0  0  0  0  0  0  0  0
   18.0015    4.9647   11.1248 H   0  0  0  0  0  0  0  0  0  0  0  0
   15.8353    4.9879   13.2663 H   0  0  0  0  0  0  0  0  0  0  0  0
   18.5737    3.5929   13.4513 H   0  0  0  0  0  0  0  0  0  0  0  0
   17.9863    4.5938   15.5625 H   0  0  0  0  0  0  0  0  0  0  0  0
   17.7373    2.8497   15.6364 H   0  0  0  0  0  0  0  0  0  0  0  0
   15.4495    1.0406   17.2919 H   0  0  0  0  0  0  0  0  0  0  0  0
   16.2142    1.4263   15.7405 H   0  0  0  0  0  0  0  0  0  0  0  0
   16.9071    9.1291   14.6078 H   0  0  0  0  0  0  0  0  0  0  0  0
   18.2611    8.6780   13.5613 H   0  0  0  0  0  0  0  0  0  0  0  0
   18.1689    8.0631   15.2511 H   0  0  0  0  0  0  0  0  0  0  0  0
   16.4948    8.6332    9.0544 H   0  0  0  0  0  0  0  0  0  0  0  0
   15.4611    8.4912   10.4833 H   0  0  0  0  0  0  0  0  0  0  0  0
   15.1081    7.5390    8.9945 H   0  0  0  0  0  0  0  0  0  0  0  0
  1  2  1  0  0  0  0
  1  3  1  0  0  0  0
  1 10  1  0  0  0  0
  1 23  1  6  0  0  0
  2 24  1  0  0  0  0
  3  4  1  0  0  0  0
  3  5  1  0  0  0  0
  3 25  1  1  0  0  0
  4 26  1  0  0  0  0
  5  6  1  0  0  0  0
  5  7  1  0  0  0  0
  5 27  1  6  0  0  0
  6 19  1  0  0  0  0
  7  8  1  0  0  0  0
  7  9  1  0  0  0  0
  7 28  1  1  0  0  0
  8 18  1  0  0  0  0
  9 10  1  0  0  0  0
  9 11  1  0  0  0  0
  9 29  1  6  0  0  0
 11 12  1  0  0  0  0
 11 30  1  0  0  0  0
 11 31  1  0  0  0  0
 12 15  1  0  0  0  0
 13 15  2  0  0  0  0
 14 15  1  0  0  0  0
 14 32  1  0  0  0  0
 14 33  1  0  0  0  0
 15 16  2  0  0  0  0
 17 18  2  0  0  0  0
 18 21  1  0  0  0  0
 19 20  2  0  0  0  0
 19 22  1  0  0  0  0
 21 34  1  0  0  0  0
 21 35  1  0  0  0  0
 21 36  1  0  0  0  0
 22 37  1  0  0  0  0
 22 38  1  0  0  0  0
 22 39  1  0  0  0  0
M  END
$$$$
