SL0
 OpenBabel04091915543D

 60 63  0  0  1  0  0  0  0  0999 V2000
   29.1534    4.4304    3.8054 C   0  0  0  0  0  0  0  0  0  0  0  0
   30.2472    4.2049    4.8092 C   0  0  0  0  0  0  0  0  0  0  0  0
   30.4392    3.1215    5.3330 O   0  0  0  0  0  0  0  0  0  0  0  0
   30.9669    5.3315    5.0797 O   0  0  0  0  0  0  0  0  0  0  0  0
   31.8840    5.2110    6.2138 C   0  0  1  0  0  0  0  0  0  0  0  0
   33.3135    4.9160    5.7491 C   0  0  1  0  0  0  0  0  0  0  0  0
   33.7487    5.9647    4.8701 O   0  0  0  0  0  0  0  0  0  0  0  0
   31.8423    6.5038    7.0422 C   0  0  1  0  0  0  0  0  0  0  0  0
   30.4865    6.6373    7.5634 O   0  0  0  0  0  0  0  0  0  0  0  0
   29.7694    7.6607    7.0559 C   0  0  0  0  0  0  0  0  0  0  0  0
   30.2387    8.6114    6.4212 O   0  0  0  0  0  0  0  0  0  0  0  0
   28.2927    7.5104    7.2149 C   0  0  0  0  0  0  0  0  0  0  0  0
   32.8689    6.3976    8.1762 C   0  0  2  0  0  0  0  0  0  0  0  0
   32.9776    7.6930    8.9623 C   0  0  0  0  0  0  0  0  0  0  0  0
   34.1777    6.0645    7.7140 O   0  0  0  0  0  0  0  0  0  0  0  0
   34.2505    4.8298    6.9774 C   0  0  1  0  0  0  0  0  0  0  0  0
   33.8770    3.6772    7.7479 O   0  0  0  0  0  0  0  0  0  0  0  0
   34.5481    3.5588    8.9630 C   0  0  0  0  0  0  0  0  0  0  0  0
   36.0427    3.4233    8.9418 C   0  0  0  0  0  0  0  0  0  0  0  0
   36.6034    3.4301    7.8553 O   0  0  0  0  0  0  0  0  0  0  0  0
   33.8914    3.4882   10.1369 C   0  0  0  0  0  0  0  0  0  0  0  0
   32.3954    3.5256   10.2799 C   0  0  0  0  0  0  0  0  0  0  0  0
   31.8098    3.9907   11.4726 C   0  0  0  0  0  0  0  0  0  0  0  0
   30.4180    3.9937   11.6567 C   0  0  0  0  0  0  0  0  0  0  0  0
   29.5889    3.5363   10.6406 C   0  0  0  0  0  0  0  0  0  0  0  0
   28.2398    3.5341   10.8424 O   0  0  0  0  0  0  0  0  0  0  0  0
   30.1283    3.0787    9.4474 C   0  0  0  0  0  0  0  0  0  0  0  0
   31.5195    3.0622    9.2806 C   0  0  0  0  0  0  0  0  0  0  0  0
   34.5358    3.3890   11.3623 O   0  3  0  0  0  0  0  0  0  0  0  0
   35.9070    3.2703   11.4033 C   0  0  0  0  0  0  0  0  0  0  0  0
   36.4655    3.1438   12.6737 C   0  0  0  0  0  0  0  0  0  0  0  0
   37.8397    3.0082   12.8061 C   0  0  0  0  0  0  0  0  0  0  0  0
   38.3442    2.8811   14.0713 O   0  0  0  0  0  0  0  0  0  0  0  0
   38.6610    3.0053   11.6861 C   0  0  0  0  0  0  0  0  0  0  0  0
   38.1656    3.1350   10.3631 C   0  0  0  0  0  0  0  0  0  0  0  0
   36.7333    3.2746   10.2640 C   0  0  0  0  0  0  0  0  0  0  0  0
   38.9940    3.1219    9.3951 O   0  0  0  0  0  0  0  0  0  0  0  0
   28.5862    3.4958    3.7094 H   0  0  0  0  0  0  0  0  0  0  0  0
   29.5671    4.6736    2.8261 H   0  0  0  0  0  0  0  0  0  0  0  0
   28.4532    5.2006    4.1383 H   0  0  0  0  0  0  0  0  0  0  0  0
   31.5479    4.3899    6.8520 H   0  0  0  0  0  0  0  0  0  0  0  0
   33.3276    3.9761    5.1861 H   0  0  0  0  0  0  0  0  0  0  0  0
   33.0973    6.0218    4.1536 H   0  0  0  0  0  0  0  0  0  0  0  0
   32.1149    7.3488    6.3994 H   0  0  0  0  0  0  0  0  0  0  0  0
   27.8008    8.3898    6.7924 H   0  0  0  0  0  0  0  0  0  0  0  0
   28.0167    7.4340    8.2683 H   0  0  0  0  0  0  0  0  0  0  0  0
   27.9628    6.6372    6.6471 H   0  0  0  0  0  0  0  0  0  0  0  0
   32.5427    5.6385    8.8790 H   0  0  0  0  0  0  0  0  0  0  0  0
   33.7442    7.6039    9.7407 H   0  0  0  0  0  0  0  0  0  0  0  0
   32.0242    7.9373    9.4365 H   0  0  0  0  0  0  0  0  0  0  0  0
   33.2743    8.5218    8.3112 H   0  0  0  0  0  0  0  0  0  0  0  0
   35.2715    4.7247    6.6020 H   0  0  0  0  0  0  0  0  0  0  0  0
   32.4431    4.3360   12.2878 H   0  0  0  0  0  0  0  0  0  0  0  0
   29.9958    4.3394   12.5973 H   0  0  0  0  0  0  0  0  0  0  0  0
   27.8154    3.1708   10.0469 H   0  0  0  0  0  0  0  0  0  0  0  0
   29.4926    2.7126    8.6457 H   0  0  0  0  0  0  0  0  0  0  0  0
   31.9079    2.6595    8.3488 H   0  0  0  0  0  0  0  0  0  0  0  0
   35.8500    3.1427   13.5657 H   0  0  0  0  0  0  0  0  0  0  0  0
   39.3103    2.7958   13.9940 H   0  0  0  0  0  0  0  0  0  0  0  0
   39.7422    2.9072   11.7922 H   0  0  0  0  0  0  0  0  0  0  0  0
  1  2  1  0  0  0  0
  1 38  1  0  0  0  0
  1 39  1  0  0  0  0
  1 40  1  0  0  0  0
  2  3  2  0  0  0  0
  2  4  1  0  0  0  0
  4  5  1  0  0  0  0
  5  6  1  0  0  0  0
  5  8  1  0  0  0  0
  5 41  1  1  0  0  0
  6  7  1  0  0  0  0
  6 16  1  0  0  0  0
  6 42  1  6  0  0  0
  7 43  1  0  0  0  0
  8  9  1  0  0  0  0
  8 13  1  0  0  0  0
  8 44  1  6  0  0  0
  9 10  1  0  0  0  0
 10 11  2  0  0  0  0
 10 12  1  0  0  0  0
 12 45  1  0  0  0  0
 12 46  1  0  0  0  0
 12 47  1  0  0  0  0
 13 14  1  0  0  0  0
 13 15  1  0  0  0  0
 13 48  1  1  0  0  0
 14 49  1  0  0  0  0
 14 50  1  0  0  0  0
 14 51  1  0  0  0  0
 15 16  1  0  0  0  0
 16 17  1  0  0  0  0
 16 52  1  6  0  0  0
 17 18  1  0  0  0  0
 18 19  1  0  0  0  0
 18 21  2  0  0  0  0
 19 20  2  0  0  0  0
 19 36  1  0  0  0  0
 21 22  1  0  0  0  0
 21 29  1  0  0  0  0
 22 23  2  0  0  0  0
 22 28  1  0  0  0  0
 23 24  1  0  0  0  0
 23 53  1  0  0  0  0
 24 25  2  0  0  0  0
 24 54  1  0  0  0  0
 25 26  1  0  0  0  0
 25 27  1  0  0  0  0
 26 55  1  0  0  0  0
 27 28  2  0  0  0  0
 27 56  1  0  0  0  0
 28 57  1  0  0  0  0
 29 30  1  0  0  0  0
 30 31  2  0  0  0  0
 30 36  1  0  0  0  0
 31 32  1  0  0  0  0
 31 58  1  0  0  0  0
 32 33  1  0  0  0  0
 32 34  2  0  0  0  0
 33 59  1  0  0  0  0
 34 35  1  0  0  0  0
 34 60  1  0  0  0  0
 35 36  2  0  0  0  0
 35 37  1  0  0  0  0
M  CHG  1  29   1
M  END
$$$$
