SRO
 OpenBabel04091911043D

 26 27  0  0  1  0  0  0  0  0999 V2000
   -8.0858   31.7077  -10.7409 O   0  0  0  0  0  0  0  0  0  0  0  0
   -7.9860   33.0576  -10.5585 C   0  0  2  0  0  0  0  0  0  0  0  0
   -6.9959   33.5576   -9.7248 C   0  0  0  0  0  0  0  0  0  0  0  0
   -6.8566   34.9390   -9.5107 C   0  0  0  0  0  0  0  0  0  0  0  0
   -7.7702   35.7854  -10.1553 C   0  0  1  0  0  0  0  0  0  0  0  0
   -7.9064   37.1566  -10.1404 N   0  3  0  0  0  0  0  0  0  0  0  0
   -8.9723   37.5317  -10.9290 C   0  0  0  0  0  0  0  0  0  0  0  0
   -9.5321   36.3932  -11.4637 C   0  0  1  0  0  0  0  0  0  0  0  0
   -8.7697   35.2907  -10.9884 C   0  0  2  0  0  0  0  0  0  0  0  0
   -8.8738   33.9042  -11.2016 C   0  0  0  0  0  0  0  0  0  0  0  0
  -10.7124   36.2664  -12.3573 C   0  0  0  0  0  0  0  0  0  0  0  0
  -11.8681   35.5582  -11.6483 C   0  0  0  0  0  0  0  0  0  0  0  0
  -12.9640   35.3033  -12.6146 N   0  3  0  0  0  0  0  0  0  0  0  0
   -8.7636   31.5208  -11.4026 H   0  0  0  0  0  0  0  0  0  0  0  0
   -6.3117   32.8663   -9.2366 H   0  0  0  0  0  0  0  0  0  0  0  0
   -6.0661   35.3233   -8.8720 H   0  0  0  0  0  0  0  0  0  0  0  0
   -7.3125   37.7927   -9.6218 H   0  0  0  0  0  0  0  0  0  0  0  0
   -9.2203   38.5794  -11.0391 H   0  0  0  0  0  0  0  0  0  0  0  0
   -9.6420   33.5067  -11.8504 H   0  0  0  0  0  0  0  0  0  0  0  0
  -10.4151   35.6948  -13.2465 H   0  0  0  0  0  0  0  0  0  0  0  0
  -11.0353   37.2525  -12.7092 H   0  0  0  0  0  0  0  0  0  0  0  0
  -12.2789   36.1624  -10.8343 H   0  0  0  0  0  0  0  0  0  0  0  0
  -11.5936   34.5778  -11.2439 H   0  0  0  0  0  0  0  0  0  0  0  0
  -13.7551   34.8334  -12.1556 H   0  0  0  0  0  0  0  0  0  0  0  0
  -13.3142   36.1815  -13.0183 H   0  0  0  0  0  0  0  0  0  0  0  0
  -12.6538   34.7003  -13.3883 H   0  0  0  0  0  0  0  0  0  0  0  0
  1 14  1  0  0  0  0
  2  1  1  1  0  0  0
  2  3  1  0  0  0  0
  2 10  1  0  0  0  0
  3  4  1  0  0  0  0
  3 15  1  0  0  0  0
  4 16  1  0  0  0  0
  5  4  1  6  0  0  0
  5  6  1  0  0  0  0
  5  9  1  0  0  0  0
  6  7  1  0  0  0  0
  6 17  1  0  0  0  0
  7  8  1  0  0  0  0
  7 18  1  0  0  0  0
  8  9  1  0  0  0  0
  8 11  1  1  0  0  0
  9 10  1  1  0  0  0
 10 19  1  0  0  0  0
 11 12  1  0  0  0  0
 11 20  1  0  0  0  0
 11 21  1  0  0  0  0
 12 13  1  0  0  0  0
 12 22  1  0  0  0  0
 12 23  1  0  0  0  0
 13 24  1  0  0  0  0
 13 25  1  0  0  0  0
 13 26  1  0  0  0  0
M  CHG  2   6   1  13   1
M  END
$$$$
