STE
 OpenBabel04091916363D

 55 54  0  0  0  0  0  0  0  0999 V2000
    5.7873  -16.5559   -1.5441 C   0  0  0  0  0  0  0  0  0  0  0  0
    6.9006  -15.9385   -1.5272 O   0  0  0  0  0  0  0  0  0  0  0  0
    4.7646  -16.3746   -0.8573 O   0  0  0  0  0  0  0  0  0  0  0  0
    5.6777  -17.6968   -2.5740 C   0  0  0  0  0  0  0  0  0  0  0  0
    6.9679  -18.0894   -3.2744 C   0  0  0  0  0  0  0  0  0  0  0  0
    6.7798  -19.2076   -4.2948 C   0  0  0  0  0  0  0  0  0  0  0  0
    8.1222  -19.6969   -4.8275 C   0  0  0  0  0  0  0  0  0  0  0  0
    8.0255  -20.6279   -6.0364 C   0  0  0  0  0  0  0  0  0  0  0  0
    7.1054  -21.8261   -5.8592 C   0  0  0  0  0  0  0  0  0  0  0  0
    7.5697  -22.8046   -4.7845 C   0  0  0  0  0  0  0  0  0  0  0  0
    6.4844  -23.8423   -4.5501 C   0  0  0  0  0  0  0  0  0  0  0  0
    6.8573  -25.0103   -3.6570 C   0  0  0  0  0  0  0  0  0  0  0  0
    7.4317  -24.6128   -2.3163 C   0  0  0  0  0  0  0  0  0  0  0  0
    6.5940  -23.5904   -1.5521 C   0  0  0  0  0  0  0  0  0  0  0  0
    7.0708  -23.4584   -0.1172 C   0  0  0  0  0  0  0  0  0  0  0  0
    6.3819  -22.3537    0.6651 C   0  0  0  0  0  0  0  0  0  0  0  0
    6.5887  -20.9476    0.1084 C   0  0  0  0  0  0  0  0  0  0  0  0
    8.0454  -20.5514   -0.1529 C   0  0  0  0  0  0  0  0  0  0  0  0
    8.9277  -20.5483    1.0980 C   0  0  0  0  0  0  0  0  0  0  0  0
   10.3795  -20.2591    0.7483 C   0  0  0  0  0  0  0  0  0  0  0  0
    4.9510  -17.3823   -3.3332 H   0  0  0  0  0  0  0  0  0  0  0  0
    5.2833  -18.5785   -2.0527 H   0  0  0  0  0  0  0  0  0  0  0  0
    7.6914  -18.4178   -2.5209 H   0  0  0  0  0  0  0  0  0  0  0  0
    7.3714  -17.2117   -3.7928 H   0  0  0  0  0  0  0  0  0  0  0  0
    6.1767  -18.8338   -5.1297 H   0  0  0  0  0  0  0  0  0  0  0  0
    6.2605  -20.0455   -3.8163 H   0  0  0  0  0  0  0  0  0  0  0  0
    8.6444  -20.2196   -4.0183 H   0  0  0  0  0  0  0  0  0  0  0  0
    8.7227  -18.8256   -5.1145 H   0  0  0  0  0  0  0  0  0  0  0  0
    9.0311  -20.9935   -6.2732 H   0  0  0  0  0  0  0  0  0  0  0  0
    7.6637  -20.0495   -6.8960 H   0  0  0  0  0  0  0  0  0  0  0  0
    7.0484  -22.3613   -6.8160 H   0  0  0  0  0  0  0  0  0  0  0  0
    6.0993  -21.4670   -5.6148 H   0  0  0  0  0  0  0  0  0  0  0  0
    7.7630  -22.2620   -3.8556 H   0  0  0  0  0  0  0  0  0  0  0  0
    8.4930  -23.2987   -5.1040 H   0  0  0  0  0  0  0  0  0  0  0  0
    6.1883  -24.2585   -5.5174 H   0  0  0  0  0  0  0  0  0  0  0  0
    5.6225  -23.3380   -4.0989 H   0  0  0  0  0  0  0  0  0  0  0  0
    7.5935  -25.6409   -4.1732 H   0  0  0  0  0  0  0  0  0  0  0  0
    5.9543  -25.6109   -3.4803 H   0  0  0  0  0  0  0  0  0  0  0  0
    8.4338  -24.2055   -2.4981 H   0  0  0  0  0  0  0  0  0  0  0  0
    7.5267  -25.5312   -1.7251 H   0  0  0  0  0  0  0  0  0  0  0  0
    5.5415  -23.8922   -1.5522 H   0  0  0  0  0  0  0  0  0  0  0  0
    6.6766  -22.6181   -2.0426 H   0  0  0  0  0  0  0  0  0  0  0  0
    8.1488  -23.2679   -0.1101 H   0  0  0  0  0  0  0  0  0  0  0  0
    6.8806  -24.4039    0.4044 H   0  0  0  0  0  0  0  0  0  0  0  0
    6.7655  -22.3820    1.6921 H   0  0  0  0  0  0  0  0  0  0  0  0
    5.3062  -22.5683    0.6975 H   0  0  0  0  0  0  0  0  0  0  0  0
    6.1485  -20.2407    0.8194 H   0  0  0  0  0  0  0  0  0  0  0  0
    6.0250  -20.8695   -0.8297 H   0  0  0  0  0  0  0  0  0  0  0  0
    8.0497  -19.5475   -0.5917 H   0  0  0  0  0  0  0  0  0  0  0  0
    8.4730  -21.2321   -0.8973 H   0  0  0  0  0  0  0  0  0  0  0  0
    8.8838  -21.5210    1.5977 H   0  0  0  0  0  0  0  0  0  0  0  0
    8.5792  -19.7852    1.8027 H   0  0  0  0  0  0  0  0  0  0  0  0
   11.0020  -20.2616    1.6511 H   0  0  0  0  0  0  0  0  0  0  0  0
   10.4681  -19.2786    0.2693 H   0  0  0  0  0  0  0  0  0  0  0  0
   10.7644  -21.0213    0.0622 H   0  0  0  0  0  0  0  0  0  0  0  0
  1  2  2  0  0  0  0
  1  3  1  0  0  0  0
  1  4  1  0  0  0  0
  4  5  1  0  0  0  0
  4 21  1  0  0  0  0
  4 22  1  0  0  0  0
  5  6  1  0  0  0  0
  5 23  1  0  0  0  0
  5 24  1  0  0  0  0
  6  7  1  0  0  0  0
  6 25  1  0  0  0  0
  6 26  1  0  0  0  0
  7  8  1  0  0  0  0
  7 27  1  0  0  0  0
  7 28  1  0  0  0  0
  8  9  1  0  0  0  0
  8 29  1  0  0  0  0
  8 30  1  0  0  0  0
  9 10  1  0  0  0  0
  9 31  1  0  0  0  0
  9 32  1  0  0  0  0
 10 11  1  0  0  0  0
 10 33  1  0  0  0  0
 10 34  1  0  0  0  0
 11 12  1  0  0  0  0
 11 35  1  0  0  0  0
 11 36  1  0  0  0  0
 12 13  1  0  0  0  0
 12 37  1  0  0  0  0
 12 38  1  0  0  0  0
 13 14  1  0  0  0  0
 13 39  1  0  0  0  0
 13 40  1  0  0  0  0
 14 15  1  0  0  0  0
 14 41  1  0  0  0  0
 14 42  1  0  0  0  0
 15 16  1  0  0  0  0
 15 43  1  0  0  0  0
 15 44  1  0  0  0  0
 16 17  1  0  0  0  0
 16 45  1  0  0  0  0
 16 46  1  0  0  0  0
 17 18  1  0  0  0  0
 17 47  1  0  0  0  0
 17 48  1  0  0  0  0
 18 19  1  0  0  0  0
 18 49  1  0  0  0  0
 18 50  1  0  0  0  0
 19 20  1  0  0  0  0
 19 51  1  0  0  0  0
 19 52  1  0  0  0  0
 20 53  1  0  0  0  0
 20 54  1  0  0  0  0
 20 55  1  0  0  0  0
M  END
$$$$
