STI
 OpenBabel04091912493D

 69 73  0  0  0  0  0  0  0  0999 V2000
    6.5351    7.6181   23.3798 C   0  0  0  0  0  0  0  0  0  0  0  0
    7.3788    8.3481   22.5507 C   0  0  0  0  0  0  0  0  0  0  0  0
    8.4538    7.7341   21.8886 C   0  0  0  0  0  0  0  0  0  0  0  0
    8.6047    6.3659   22.1292 C   0  0  0  0  0  0  0  0  0  0  0  0
    7.8010    5.6233   22.9335 N   0  0  0  0  0  0  0  0  0  0  0  0
    6.7849    6.2695   23.5395 C   0  0  0  0  0  0  0  0  0  0  0  0
    9.3610    8.4774   20.9972 C   0  0  0  0  0  0  0  0  0  0  0  0
    9.1385    9.7945   20.6370 C   0  0  0  0  0  0  0  0  0  0  0  0
   10.0534   10.3690   19.7964 C   0  0  0  0  0  0  0  0  0  0  0  0
   11.1089    9.7109   19.3261 N   0  0  0  0  0  0  0  0  0  0  0  0
   11.2713    8.4373   19.7185 C   0  0  0  0  0  0  0  0  0  0  0  0
   10.4330    7.7949   20.5421 N   0  0  0  0  0  0  0  0  0  0  0  0
   12.3576    7.7297   19.2383 N   0  0  0  0  0  0  0  0  0  0  0  0
   13.2053    8.1789   18.2277 C   0  0  0  0  0  0  0  0  0  0  0  0
   12.8627    8.0942   16.8685 C   0  0  0  0  0  0  0  0  0  0  0  0
   13.7733    8.5594   15.9114 C   0  0  0  0  0  0  0  0  0  0  0  0
   15.0058    9.0847   16.3032 C   0  0  0  0  0  0  0  0  0  0  0  0
   15.3486    9.1577   17.6552 C   0  0  0  0  0  0  0  0  0  0  0  0
   14.4494    8.6915   18.6063 C   0  0  0  0  0  0  0  0  0  0  0  0
   16.6141    9.6742   17.9787 N   0  0  0  0  0  0  0  0  0  0  0  0
   17.1310    9.8775   19.2440 C   0  0  0  0  0  0  0  0  0  0  0  0
   18.5727   10.2260   19.3030 C   0  0  0  0  0  0  0  0  0  0  0  0
   19.2690   10.8165   18.2388 C   0  0  0  0  0  0  0  0  0  0  0  0
   20.6290   11.0979   18.3659 C   0  0  0  0  0  0  0  0  0  0  0  0
   21.3076   10.8212   19.5671 C   0  0  0  0  0  0  0  0  0  0  0  0
   20.6063   10.2281   20.6269 C   0  0  0  0  0  0  0  0  0  0  0  0
   19.2526    9.9381   20.4904 C   0  0  0  0  0  0  0  0  0  0  0  0
   22.7596   11.1905   19.7720 C   0  0  0  0  0  0  0  0  0  0  0  0
   23.0569   12.5552   19.3170 N   0  0  0  0  0  0  0  0  0  0  0  0
   22.2544   13.5710   20.0293 C   0  0  0  0  0  0  0  0  0  0  0  0
   22.4800   14.9546   19.3957 C   0  0  0  0  0  0  0  0  0  0  0  0
   23.9581   15.3148   19.4485 N   0  3  0  0  0  0  0  0  0  0  0  0
   24.2559   16.6107   18.7652 C   0  0  0  0  0  0  0  0  0  0  0  0
   24.8025   14.2150   18.8247 C   0  0  0  0  0  0  0  0  0  0  0  0
   24.4906   12.8551   19.4607 C   0  0  0  0  0  0  0  0  0  0  0  0
   16.5279    9.7738   20.3070 O   0  0  0  0  0  0  0  0  0  0  0  0
   11.5373    7.5558   16.4046 C   0  0  0  0  0  0  0  0  0  0  0  0
    5.7071    8.1007   23.8861 H   0  0  0  0  0  0  0  0  0  0  0  0
    7.1734    9.4079   22.4422 H   0  0  0  0  0  0  0  0  0  0  0  0
    9.4053    5.7958   21.6621 H   0  0  0  0  0  0  0  0  0  0  0  0
    6.1568    5.6582   24.1776 H   0  0  0  0  0  0  0  0  0  0  0  0
    8.2959   10.3772   20.9753 H   0  0  0  0  0  0  0  0  0  0  0  0
    9.9502   11.3947   19.4653 H   0  0  0  0  0  0  0  0  0  0  0  0
   12.4408    6.7864   19.5753 H   0  0  0  0  0  0  0  0  0  0  0  0
   13.5212    8.5191   14.8542 H   0  0  0  0  0  0  0  0  0  0  0  0
   15.6866    9.4389   15.5350 H   0  0  0  0  0  0  0  0  0  0  0  0
   14.6669    8.7353   19.6686 H   0  0  0  0  0  0  0  0  0  0  0  0
   17.2122    9.8439   17.1820 H   0  0  0  0  0  0  0  0  0  0  0  0
   18.7751   11.0933   17.3126 H   0  0  0  0  0  0  0  0  0  0  0  0
   21.1511   11.5706   17.5374 H   0  0  0  0  0  0  0  0  0  0  0  0
   21.0996   10.0091   21.5636 H   0  0  0  0  0  0  0  0  0  0  0  0
   18.7216    9.4828   21.3309 H   0  0  0  0  0  0  0  0  0  0  0  0
   23.3639   10.4648   19.2135 H   0  0  0  0  0  0  0  0  0  0  0  0
   23.0248   11.0937   20.8305 H   0  0  0  0  0  0  0  0  0  0  0  0
   22.5098   13.5863   21.0968 H   0  0  0  0  0  0  0  0  0  0  0  0
   21.1824   13.3619   19.9573 H   0  0  0  0  0  0  0  0  0  0  0  0
   21.9230   15.7285   19.9327 H   0  0  0  0  0  0  0  0  0  0  0  0
   22.1861   14.9500   18.3396 H   0  0  0  0  0  0  0  0  0  0  0  0
   25.2989   16.8601   18.9780 H   0  0  0  0  0  0  0  0  0  0  0  0
   23.5877   17.3806   19.1541 H   0  0  0  0  0  0  0  0  0  0  0  0
   24.1076   16.4678   17.6908 H   0  0  0  0  0  0  0  0  0  0  0  0
   25.8517   14.4926   18.9612 H   0  0  0  0  0  0  0  0  0  0  0  0
   24.5579   14.1995   17.7560 H   0  0  0  0  0  0  0  0  0  0  0  0
   25.0949   12.0999   18.9449 H   0  0  0  0  0  0  0  0  0  0  0  0
   24.7892   12.8563   20.5171 H   0  0  0  0  0  0  0  0  0  0  0  0
   10.8976    7.2279   17.2281 H   0  0  0  0  0  0  0  0  0  0  0  0
   11.6947    6.6896   15.7554 H   0  0  0  0  0  0  0  0  0  0  0  0
   10.9887    8.3283   15.8555 H   0  0  0  0  0  0  0  0  0  0  0  0
   24.2138   15.3977   20.4431 H   0  0  0  0  0  0  0  0  0  0  0  0
  1  2  2  0  0  0  0
  1  6  1  0  0  0  0
  1 38  1  0  0  0  0
  2  3  1  0  0  0  0
  2 39  1  0  0  0  0
  3  4  2  0  0  0  0
  3  7  1  0  0  0  0
  4  5  1  0  0  0  0
  4 40  1  0  0  0  0
  5  6  2  0  0  0  0
  6 41  1  0  0  0  0
  7  8  2  0  0  0  0
  7 12  1  0  0  0  0
  8  9  1  0  0  0  0
  8 42  1  0  0  0  0
  9 10  2  0  0  0  0
  9 43  1  0  0  0  0
 10 11  1  0  0  0  0
 11 12  2  0  0  0  0
 11 13  1  0  0  0  0
 13 14  1  0  0  0  0
 13 44  1  0  0  0  0
 14 15  2  0  0  0  0
 14 19  1  0  0  0  0
 15 16  1  0  0  0  0
 15 37  1  0  0  0  0
 16 17  2  0  0  0  0
 16 45  1  0  0  0  0
 17 18  1  0  0  0  0
 17 46  1  0  0  0  0
 18 19  2  0  0  0  0
 18 20  1  0  0  0  0
 19 47  1  0  0  0  0
 20 21  1  0  0  0  0
 20 48  1  0  0  0  0
 21 22  1  0  0  0  0
 21 36  2  0  0  0  0
 22 23  2  0  0  0  0
 22 27  1  0  0  0  0
 23 24  1  0  0  0  0
 23 49  1  0  0  0  0
 24 25  2  0  0  0  0
 24 50  1  0  0  0  0
 25 26  1  0  0  0  0
 25 28  1  0  0  0  0
 26 27  2  0  0  0  0
 26 51  1  0  0  0  0
 27 52  1  0  0  0  0
 28 29  1  0  0  0  0
 28 53  1  0  0  0  0
 28 54  1  0  0  0  0
 29 30  1  0  0  0  0
 29 35  1  0  0  0  0
 30 31  1  0  0  0  0
 30 55  1  0  0  0  0
 30 56  1  0  0  0  0
 31 32  1  0  0  0  0
 31 57  1  0  0  0  0
 31 58  1  0  0  0  0
 32 33  1  0  0  0  0
 32 34  1  0  0  0  0
 32 69  1  0  0  0  0
 33 59  1  0  0  0  0
 33 60  1  0  0  0  0
 33 61  1  0  0  0  0
 34 35  1  0  0  0  0
 34 62  1  0  0  0  0
 34 63  1  0  0  0  0
 35 64  1  0  0  0  0
 35 65  1  0  0  0  0
 37 66  1  0  0  0  0
 37 67  1  0  0  0  0
 37 68  1  0  0  0  0
M  CHG  1  32   1
M  END
$$$$
