STU
 OpenBabel04091912573D

 62 69  0  0  1  0  0  0  0  0999 V2000
  -38.0445  -13.0877  -11.2553 O   0  0  0  0  0  0  0  0  0  0  0  0
  -36.7975  -12.9787  -10.6210 C   0  0  2  0  0  0  0  0  0  0  0  0
  -35.8143  -12.0491  -11.3272 C   0  0  0  0  0  0  0  0  0  0  0  0
  -36.4801  -11.4742  -12.5688 C   0  0  2  0  0  0  0  0  0  0  0  0
  -37.0379  -12.5863  -13.4764 C   0  0  2  0  0  0  0  0  0  0  0  0
  -38.0594  -13.4226  -12.6501 C   0  0  2  0  0  0  0  0  0  0  0  0
  -39.4582  -12.9236  -12.9944 C   0  0  0  0  0  0  0  0  0  0  0  0
  -38.0020  -14.8477  -12.8131 N   0  3  0  0  0  0  0  0  0  0  0  0
  -37.3859  -15.7693  -12.0124 C   0  0  0  0  0  0  0  0  0  0  0  0
  -36.6082  -15.4994  -10.8595 C   0  0  0  0  0  0  0  0  0  0  0  0
  -35.9914  -16.6361  -10.2769 C   0  0  0  0  0  0  0  0  0  0  0  0
  -36.0607  -17.9795  -10.6746 C   0  0  0  0  0  0  0  0  0  0  0  0
  -36.8165  -18.2229  -11.8547 C   0  0  0  0  0  0  0  0  0  0  0  0
  -37.4092  -17.0929  -12.4304 C   0  0  0  0  0  0  0  0  0  0  0  0
  -38.1822  -17.0419  -13.6316 C   0  0  0  0  0  0  0  0  0  0  0  0
  -38.5252  -15.6583  -13.8600 C   0  0  0  0  0  0  0  0  0  0  0  0
  -39.3008  -15.3197  -15.0143 C   0  0  0  0  0  0  0  0  0  0  0  0
  -39.7651  -16.3037  -15.8889 C   0  0  0  0  0  0  0  0  0  0  0  0
  -39.4485  -17.6223  -15.6761 C   0  0  0  0  0  0  0  0  0  0  0  0
  -38.6542  -17.9970  -14.5738 C   0  0  0  0  0  0  0  0  0  0  0  0
  -36.8434  -19.6311  -12.2065 C   0  0  0  0  0  0  0  0  0  0  0  0
  -36.0337  -20.1494  -11.1113 N   0  0  0  0  0  0  0  0  0  0  0  0
  -35.5627  -19.2173  -10.2051 C   0  0  0  0  0  0  0  0  0  0  0  0
  -34.8711  -19.5324   -9.2462 O   0  0  0  0  0  0  0  0  0  0  0  0
  -35.2906  -16.0496   -9.1514 C   0  0  0  0  0  0  0  0  0  0  0  0
  -35.5081  -14.6118   -9.1915 C   0  0  0  0  0  0  0  0  0  0  0  0
  -34.9712  -13.7629   -8.2226 C   0  0  0  0  0  0  0  0  0  0  0  0
  -34.2095  -14.2667   -7.1608 C   0  0  0  0  0  0  0  0  0  0  0  0
  -33.9641  -15.6235   -7.0865 C   0  0  0  0  0  0  0  0  0  0  0  0
  -34.4951  -16.5227   -8.0685 C   0  0  0  0  0  0  0  0  0  0  0  0
  -36.3181  -14.2974  -10.3145 N   0  3  0  0  0  0  0  0  0  0  0  0
  -35.9853  -13.2452  -14.2069 O   0  0  0  0  0  0  0  0  0  0  0  0
  -35.1183  -14.1305  -13.5240 C   0  0  0  0  0  0  0  0  0  0  0  0
  -35.4908  -10.6345  -13.3374 N   0  3  0  0  0  0  0  0  0  0  0  0
  -36.0493   -9.6748  -14.3371 C   0  0  0  0  0  0  0  0  0  0  0  0
  -37.0127  -12.5163   -9.6583 H   0  0  0  0  0  0  0  0  0  0  0  0
  -34.8548  -12.5295  -11.5036 H   0  0  0  0  0  0  0  0  0  0  0  0
  -35.5022  -11.2538  -10.6465 H   0  0  0  0  0  0  0  0  0  0  0  0
  -37.2780  -10.7969  -12.2389 H   0  0  0  0  0  0  0  0  0  0  0  0
  -37.6065  -12.0878  -14.2733 H   0  0  0  0  0  0  0  0  0  0  0  0
  -39.6634  -12.9992  -14.0523 H   0  0  0  0  0  0  0  0  0  0  0  0
  -39.5594  -11.8628  -12.7609 H   0  0  0  0  0  0  0  0  0  0  0  0
  -40.2132  -13.4881  -12.4359 H   0  0  0  0  0  0  0  0  0  0  0  0
  -39.5916  -14.3114  -15.2790 H   0  0  0  0  0  0  0  0  0  0  0  0
  -40.3890  -16.0163  -16.7419 H   0  0  0  0  0  0  0  0  0  0  0  0
  -39.8136  -18.3748  -16.3705 H   0  0  0  0  0  0  0  0  0  0  0  0
  -38.4370  -19.0500  -14.4477 H   0  0  0  0  0  0  0  0  0  0  0  0
  -36.3430  -19.8385  -13.1587 H   0  0  0  0  0  0  0  0  0  0  0  0
  -37.8535  -20.0519  -12.1487 H   0  0  0  0  0  0  0  0  0  0  0  0
  -35.8242  -21.1214  -10.9841 H   0  0  0  0  0  0  0  0  0  0  0  0
  -35.1514  -12.6742   -8.2157 H   0  0  0  0  0  0  0  0  0  0  0  0
  -33.7955  -13.6076   -6.3855 H   0  0  0  0  0  0  0  0  0  0  0  0
  -33.3739  -16.0342   -6.2734 H   0  0  0  0  0  0  0  0  0  0  0  0
  -34.2865  -17.5772   -7.9498 H   0  0  0  0  0  0  0  0  0  0  0  0
  -34.4262  -14.6228  -14.1912 H   0  0  0  0  0  0  0  0  0  0  0  0
  -35.6317  -14.9149  -13.0212 H   0  0  0  0  0  0  0  0  0  0  0  0
  -34.5073  -13.6180  -12.8001 H   0  0  0  0  0  0  0  0  0  0  0  0
  -34.9102  -10.1008  -12.6803 H   0  0  0  0  0  0  0  0  0  0  0  0
  -35.1987   -9.1645  -14.7969 H   0  0  0  0  0  0  0  0  0  0  0  0
  -36.6845   -8.9574  -13.8126 H   0  0  0  0  0  0  0  0  0  0  0  0
  -36.6083  -10.2268  -15.0956 H   0  0  0  0  0  0  0  0  0  0  0  0
  -34.8675  -11.2807  -13.8488 H   0  0  0  0  0  0  0  0  0  0  0  0
  1  2  1  0  0  0  0
  1  6  1  0  0  0  0
  2  3  1  0  0  0  0
  2 31  1  0  0  0  0
  2 36  1  1  0  0  0
  3  4  1  0  0  0  0
  3 37  1  0  0  0  0
  3 38  1  0  0  0  0
  4  5  1  0  0  0  0
  4 34  1  0  0  0  0
  4 39  1  1  0  0  0
  5  6  1  0  0  0  0
  5 32  1  0  0  0  0
  5 40  1  6  0  0  0
  6  7  1  6  0  0  0
  6  8  1  0  0  0  0
  7 41  1  0  0  0  0
  7 42  1  0  0  0  0
  7 43  1  0  0  0  0
  8  9  2  0  0  0  0
  8 16  1  0  0  0  0
  9 10  1  0  0  0  0
  9 14  1  0  0  0  0
 10 11  1  0  0  0  0
 10 31  2  0  0  0  0
 11 12  2  0  0  0  0
 11 25  1  0  0  0  0
 12 13  1  0  0  0  0
 12 23  1  0  0  0  0
 13 14  2  0  0  0  0
 13 21  1  0  0  0  0
 14 15  1  0  0  0  0
 15 16  2  0  0  0  0
 15 20  1  0  0  0  0
 16 17  1  0  0  0  0
 17 18  2  0  0  0  0
 17 44  1  0  0  0  0
 18 19  1  0  0  0  0
 18 45  1  0  0  0  0
 19 20  2  0  0  0  0
 19 46  1  0  0  0  0
 20 47  1  0  0  0  0
 21 22  1  0  0  0  0
 21 48  1  0  0  0  0
 21 49  1  0  0  0  0
 22 23  1  0  0  0  0
 22 50  1  0  0  0  0
 23 24  2  0  0  0  0
 25 26  2  0  0  0  0
 25 30  1  0  0  0  0
 26 27  1  0  0  0  0
 26 31  1  0  0  0  0
 27 28  2  0  0  0  0
 27 51  1  0  0  0  0
 28 29  1  0  0  0  0
 28 52  1  0  0  0  0
 29 30  2  0  0  0  0
 29 53  1  0  0  0  0
 30 54  1  0  0  0  0
 32 33  1  0  0  0  0
 33 55  1  0  0  0  0
 33 56  1  0  0  0  0
 33 57  1  0  0  0  0
 34 35  1  0  0  0  0
 34 58  1  0  0  0  0
 34 62  1  0  0  0  0
 35 59  1  0  0  0  0
 35 60  1  0  0  0  0
 35 61  1  0  0  0  0
M  CHG  3   8   1  31   1  34   1
M  END
$$$$
