SU0
 OpenBabel04091913503D

 43 45  0  0  0  0  0  0  0  0999 V2000
   -5.0392    2.6831   15.6799 C   0  0  0  0  0  0  0  0  0  0  0  0
   -5.1254    0.0740   15.9785 N   0  0  0  0  0  0  0  0  0  0  0  0
   -7.2385    1.3850   16.4399 O   0  0  0  0  0  0  0  0  0  0  0  0
   -5.8061    1.4366   16.6831 S   0  0  0  0  0  0  0  0  0  0  0  0
   -3.6529    2.5590   15.4523 C   0  0  0  0  0  0  0  0  0  0  0  0
   -5.2692    1.5629   17.9873 O   0  0  0  0  0  0  0  0  0  0  0  0
   -2.9981    3.5353   14.7094 C   0  0  0  0  0  0  0  0  0  0  0  0
   -4.5924    6.9450   12.7518 O   0  0  0  0  0  0  0  0  0  0  0  0
   -3.7079    4.6230   14.1940 C   0  0  0  0  0  0  0  0  0  0  0  0
   -0.0812    9.6361   15.5103 O   0  0  0  0  0  0  0  0  0  0  0  0
   -5.1124    4.7228   14.3991 C   0  0  0  0  0  0  0  0  0  0  0  0
   -5.7848    3.7447   15.1594 C   0  0  0  0  0  0  0  0  0  0  0  0
   -3.4148    6.5996   12.7242 C   0  0  0  0  0  0  0  0  0  0  0  0
   -2.9101    5.5472   13.4618 N   0  0  0  0  0  0  0  0  0  0  0  0
   -2.3840    7.3948   11.9117 C   0  0  0  0  0  0  0  0  0  0  0  0
   -1.9730    8.6199   12.7094 C   0  0  0  0  0  0  0  0  0  0  0  0
   -1.2521    8.5394   13.8174 C   0  0  0  0  0  0  0  0  0  0  0  0
   -0.7594    9.7337   14.5145 C   0  0  0  0  0  0  0  0  0  0  0  0
   -1.0441   10.9945   13.9768 O   0  3  0  0  0  0  0  0  0  0  0  0
   -1.9403   11.1118   12.9061 C   0  0  0  0  0  0  0  0  0  0  0  0
   -2.3291   12.4209   12.5511 C   0  0  0  0  0  0  0  0  0  0  0  0
   -3.2315   12.6130   11.5015 C   0  0  0  0  0  0  0  0  0  0  0  0
   -3.7871   11.4687   10.8595 C   0  0  0  0  0  0  0  0  0  0  0  0
   -3.3734   10.1568   11.2241 C   0  0  0  0  0  0  0  0  0  0  0  0
   -2.4305    9.9680   12.2487 C   0  0  0  0  0  0  0  0  0  0  0  0
   -3.6469   13.8739   11.0938 O   0  0  0  0  0  0  0  0  0  0  0  0
   -2.7761   15.0336   11.2262 C   0  0  0  0  0  0  0  0  0  0  0  0
   -5.3396   -0.8449   16.3524 H   0  0  0  0  0  0  0  0  0  0  0  0
   -4.4435    0.1854   15.2280 H   0  0  0  0  0  0  0  0  0  0  0  0
   -3.0710    1.7227   15.8473 H   0  0  0  0  0  0  0  0  0  0  0  0
   -1.9274    3.4357   14.5285 H   0  0  0  0  0  0  0  0  0  0  0  0
   -5.6795    5.5632   13.9834 H   0  0  0  0  0  0  0  0  0  0  0  0
   -6.8638    3.7945   15.3584 H   0  0  0  0  0  0  0  0  0  0  0  0
   -1.9067    5.4363   13.5428 H   0  0  0  0  0  0  0  0  0  0  0  0
   -2.8035    7.6733   10.9376 H   0  0  0  0  0  0  0  0  0  0  0  0
   -1.5044    6.7752   11.6888 H   0  0  0  0  0  0  0  0  0  0  0  0
   -0.9725    7.5815   14.2868 H   0  0  0  0  0  0  0  0  0  0  0  0
   -1.9641   13.2872   13.1020 H   0  0  0  0  0  0  0  0  0  0  0  0
   -4.5352   11.5550   10.0591 H   0  0  0  0  0  0  0  0  0  0  0  0
   -3.8135    9.3084   10.6703 H   0  0  0  0  0  0  0  0  0  0  0  0
   -3.3060   15.9310   10.8414 H   0  0  0  0  0  0  0  0  0  0  0  0
   -1.8666   14.9175   10.6224 H   0  0  0  0  0  0  0  0  0  0  0  0
   -2.5047   15.2503   12.2675 H   0  0  0  0  0  0  0  0  0  0  0  0
  1  4  1  0  0  0  0
  1  5  2  0  0  0  0
  1 12  1  0  0  0  0
  2  4  1  0  0  0  0
  2 28  1  0  0  0  0
  2 29  1  0  0  0  0
  3  4  2  0  0  0  0
  4  6  2  0  0  0  0
  5  7  1  0  0  0  0
  5 30  1  0  0  0  0
  7  9  2  0  0  0  0
  7 31  1  0  0  0  0
  8 13  2  0  0  0  0
  9 11  1  0  0  0  0
  9 14  1  0  0  0  0
 10 18  2  0  0  0  0
 11 12  2  0  0  0  0
 11 32  1  0  0  0  0
 12 33  1  0  0  0  0
 13 14  1  0  0  0  0
 13 15  1  0  0  0  0
 14 34  1  0  0  0  0
 15 16  1  0  0  0  0
 15 35  1  0  0  0  0
 15 36  1  0  0  0  0
 16 17  2  0  0  0  0
 16 25  1  0  0  0  0
 17 18  1  0  0  0  0
 17 37  1  0  0  0  0
 18 19  1  0  0  0  0
 19 20  1  0  0  0  0
 20 21  2  0  0  0  0
 20 25  1  0  0  0  0
 21 22  1  0  0  0  0
 21 38  1  0  0  0  0
 22 23  2  0  0  0  0
 22 26  1  0  0  0  0
 23 24  1  0  0  0  0
 23 39  1  0  0  0  0
 24 25  2  0  0  0  0
 24 40  1  0  0  0  0
 26 27  1  0  0  0  0
 27 41  1  0  0  0  0
 27 42  1  0  0  0  0
 27 43  1  0  0  0  0
M  CHG  1  19   1
M  END
$$$$
