SUE
 OpenBabel04091915213D

104110  0  0  1  0  0  0  0  0999 V2000
   15.8907   -8.7020  -14.8022 C   0  0  0  0  0  0  0  0  0  0  0  0
   18.3024   -8.7456  -15.0390 N   0  0  0  0  0  0  0  0  0  0  0  0
   15.6708   -7.9927  -15.7923 O   0  0  0  0  0  0  0  0  0  0  0  0
   17.2361   -8.5865  -14.0503 C   0  0  1  0  0  0  0  0  0  0  0  0
   17.3417   -7.2429  -13.2513 C   0  0  0  0  0  0  0  0  0  0  0  0
   18.6268   -9.9906  -15.5233 C   0  0  0  0  0  0  0  0  0  0  0  0
   12.5447  -13.9935  -13.9385 N   0  0  0  0  0  0  0  0  0  0  0  0
   11.4977  -17.1164  -15.6206 C   0  0  0  0  0  0  0  0  0  0  0  0
   10.9712  -15.6264  -13.3329 C   0  0  0  0  0  0  0  0  0  0  0  0
   20.6047  -11.3606  -18.3203 C   0  0  0  0  0  0  0  0  0  0  0  0
   19.4405  -12.1177  -17.7642 C   0  0  2  0  0  0  0  0  0  0  0  0
   20.1978  -11.1648  -16.8788 C   0  0  2  0  0  0  0  0  0  0  0  0
    6.5638   -7.3136  -13.2887 C   0  0  0  0  0  0  0  0  0  0  0  0
    7.1265   -8.2685  -13.9746 C   0  0  0  0  0  0  0  0  0  0  0  0
    7.8403   -5.6510  -15.3962 O   0  0  0  0  0  0  0  0  0  0  0  0
    8.7969   -6.0004  -14.3568 S   0  0  0  0  0  0  0  0  0  0  0  0
   12.1598   -6.4269  -16.4961 C   0  0  2  0  0  0  0  0  0  0  0  0
   12.9554   -7.4879  -14.0079 O   0  0  0  0  0  0  0  0  0  0  0  0
   12.9976   -8.2085  -15.0037 C   0  0  0  0  0  0  0  0  0  0  0  0
   18.5837   -7.3176  -12.3423 C   0  0  0  0  0  0  0  0  0  0  0  0
   13.2677   -3.9991  -16.3248 C   0  0  0  0  0  0  0  0  0  0  0  0
   12.1697  -15.9288  -15.3832 C   0  0  0  0  0  0  0  0  0  0  0  0
   19.5475  -13.5934  -17.4770 C   0  0  0  0  0  0  0  0  0  0  0  0
   10.1180   -6.6804  -15.0951 N   0  0  0  0  0  0  0  0  0  0  0  0
   13.3516   -5.4623  -16.7016 C   0  0  2  0  0  0  0  0  0  0  0  0
   17.1240  -13.6875  -17.0513 C   0  0  0  0  0  0  0  0  0  0  0  0
   10.5304  -17.5572  -14.7231 C   0  0  0  0  0  0  0  0  0  0  0  0
   14.2017  -12.4673  -14.6633 O   0  0  0  0  0  0  0  0  0  0  0  0
    8.8022  -16.3914  -11.7732 C   0  0  0  0  0  0  0  0  0  0  0  0
    9.2953  -17.3088  -12.7581 O   0  0  0  0  0  0  0  0  0  0  0  0
   18.4817  -14.0396  -16.4837 C   0  0  0  0  0  0  0  0  0  0  0  0
   16.0395  -14.5397  -16.4625 C   0  0  0  0  0  0  0  0  0  0  0  0
   13.4377  -13.6012  -14.8558 C   0  0  0  0  0  0  0  0  0  0  0  0
   13.6715  -14.3490  -16.0100 C   0  0  0  0  0  0  0  0  0  0  0  0
   11.9207  -15.1656  -14.2166 C   0  0  0  0  0  0  0  0  0  0  0  0
   13.0505  -15.5206  -16.2827 N   0  0  0  0  0  0  0  0  0  0  0  0
   14.7304  -13.9587  -16.9674 C   0  0  0  0  0  0  0  0  0  0  0  0
   10.2624  -16.8069  -13.5780 C   0  0  0  0  0  0  0  0  0  0  0  0
    9.2556   -5.0441  -13.3770 O   0  0  0  0  0  0  0  0  0  0  0  0
    7.9993   -7.3096  -13.3632 C   0  0  1  0  0  0  0  0  0  0  0  0
   10.4189   -4.8028  -16.3968 O   0  0  0  0  0  0  0  0  0  0  0  0
   12.5429   -5.9386  -17.8844 C   0  0  0  0  0  0  0  0  0  0  0  0
   10.8313   -5.8716  -15.9872 C   0  0  0  0  0  0  0  0  0  0  0  0
   12.4401   -7.8313  -16.2074 N   0  0  0  0  0  0  0  0  0  0  0  0
   14.4597   -3.4464  -15.5631 C   0  0  0  0  0  0  0  0  0  0  0  0
   18.1548  -11.0300  -15.0770 O   0  0  0  0  0  0  0  0  0  0  0  0
   19.5394   -9.9206  -16.5241 O   0  0  0  0  0  0  0  0  0  0  0  0
   12.7846  -10.5694  -14.1428 C   0  0  0  0  0  0  0  0  0  0  0  0
   13.6237   -9.6109  -14.9990 C   0  0  2  0  0  0  0  0  0  0  0  0
   14.9181   -9.5631  -14.3299 N   0  0  0  0  0  0  0  0  0  0  0  0
   15.0262  -10.6338  -13.3347 C   0  0  0  0  0  0  0  0  0  0  0  0
   13.8205  -11.5634  -13.6181 C   0  0  2  0  0  0  0  0  0  0  0  0
   16.1068   -7.0266  -12.3499 C   0  0  0  0  0  0  0  0  0  0  0  0
   17.4775   -6.0018  -14.1582 C   0  0  0  0  0  0  0  0  0  0  0  0
   18.6826   -7.9563  -15.5351 H   0  0  0  0  0  0  0  0  0  0  0  0
   17.3222   -9.4198  -13.3394 H   0  0  0  0  0  0  0  0  0  0  0  0
   11.7081  -17.6824  -16.5143 H   0  0  0  0  0  0  0  0  0  0  0  0
   10.8115  -15.0319  -12.4411 H   0  0  0  0  0  0  0  0  0  0  0  0
   20.3774  -10.5833  -19.0405 H   0  0  0  0  0  0  0  0  0  0  0  0
   21.4893  -11.9409  -18.5571 H   0  0  0  0  0  0  0  0  0  0  0  0
   18.4744  -11.8182  -18.1486 H   0  0  0  0  0  0  0  0  0  0  0  0
   20.8337  -11.6032  -16.1147 H   0  0  0  0  0  0  0  0  0  0  0  0
    5.6947   -6.7941  -12.9723 H   0  0  0  0  0  0  0  0  0  0  0  0
    7.0180   -9.0992  -14.6243 H   0  0  0  0  0  0  0  0  0  0  0  0
   18.7086   -6.3968  -11.7600 H   0  0  0  0  0  0  0  0  0  0  0  0
   19.4958   -7.4648  -12.9292 H   0  0  0  0  0  0  0  0  0  0  0  0
   18.5019   -8.1490  -11.6336 H   0  0  0  0  0  0  0  0  0  0  0  0
   12.4000   -3.8151  -15.6880 H   0  0  0  0  0  0  0  0  0  0  0  0
   13.1353   -3.4045  -17.2359 H   0  0  0  0  0  0  0  0  0  0  0  0
   20.5341  -13.8592  -17.0769 H   0  0  0  0  0  0  0  0  0  0  0  0
   19.4186  -14.1591  -18.4074 H   0  0  0  0  0  0  0  0  0  0  0  0
   10.5815   -7.4628  -14.6566 H   0  0  0  0  0  0  0  0  0  0  0  0
   14.3612   -5.8539  -16.6272 H   0  0  0  0  0  0  0  0  0  0  0  0
   17.0997  -13.7999  -18.1417 H   0  0  0  0  0  0  0  0  0  0  0  0
   16.9097  -12.6338  -16.8283 H   0  0  0  0  0  0  0  0  0  0  0  0
    9.9940  -18.4756  -14.9100 H   0  0  0  0  0  0  0  0  0  0  0  0
    8.0407  -16.9030  -11.1863 H   0  0  0  0  0  0  0  0  0  0  0  0
    8.3452  -15.5242  -12.2619 H   0  0  0  0  0  0  0  0  0  0  0  0
    9.5967  -16.0895  -11.0866 H   0  0  0  0  0  0  0  0  0  0  0  0
   18.6142  -13.5417  -15.5159 H   0  0  0  0  0  0  0  0  0  0  0  0
   18.5608  -15.1179  -16.3001 H   0  0  0  0  0  0  0  0  0  0  0  0
   16.1156  -14.5328  -15.3676 H   0  0  0  0  0  0  0  0  0  0  0  0
   16.1478  -15.5844  -16.7804 H   0  0  0  0  0  0  0  0  0  0  0  0
   14.5089  -14.3382  -17.9706 H   0  0  0  0  0  0  0  0  0  0  0  0
   14.7561  -12.8665  -17.0516 H   0  0  0  0  0  0  0  0  0  0  0  0
    8.5242   -7.6081  -12.4690 H   0  0  0  0  0  0  0  0  0  0  0  0
   11.8657   -5.2377  -18.3679 H   0  0  0  0  0  0  0  0  0  0  0  0
   12.9696   -6.6521  -18.5788 H   0  0  0  0  0  0  0  0  0  0  0  0
   12.5035   -8.4581  -17.0019 H   0  0  0  0  0  0  0  0  0  0  0  0
   14.2754   -2.3874  -15.3360 H   0  0  0  0  0  0  0  0  0  0  0  0
   15.3824   -3.5074  -16.1449 H   0  0  0  0  0  0  0  0  0  0  0  0
   14.6061   -3.9667  -14.6120 H   0  0  0  0  0  0  0  0  0  0  0  0
   11.9870  -11.0343  -14.7297 H   0  0  0  0  0  0  0  0  0  0  0  0
   12.3213  -10.0367  -13.3018 H   0  0  0  0  0  0  0  0  0  0  0  0
   13.7670  -10.0003  -16.0141 H   0  0  0  0  0  0  0  0  0  0  0  0
   14.9368  -10.1626  -12.3504 H   0  0  0  0  0  0  0  0  0  0  0  0
   15.9850  -11.1503  -13.4178 H   0  0  0  0  0  0  0  0  0  0  0  0
   13.5169  -12.0927  -12.7085 H   0  0  0  0  0  0  0  0  0  0  0  0
   15.1942   -6.9192  -12.9419 H   0  0  0  0  0  0  0  0  0  0  0  0
   16.2016   -6.1078  -11.7584 H   0  0  0  0  0  0  0  0  0  0  0  0
   15.9647   -7.8584  -11.6528 H   0  0  0  0  0  0  0  0  0  0  0  0
   18.3570   -6.0563  -14.8051 H   0  0  0  0  0  0  0  0  0  0  0  0
   17.5871   -5.0883  -13.5570 H   0  0  0  0  0  0  0  0  0  0  0  0
   16.5964   -5.8611  -14.7905 H   0  0  0  0  0  0  0  0  0  0  0  0
  1  3  2  0  0  0  0
  1  4  1  0  0  0  0
  1 50  1  0  0  0  0
  2  4  1  0  0  0  0
  2  6  1  0  0  0  0
  2 55  1  0  0  0  0
  4  5  1  0  0  0  0
  4 56  1  1  0  0  0
  5 20  1  0  0  0  0
  5 53  1  0  0  0  0
  5 54  1  0  0  0  0
  6 46  2  0  0  0  0
  6 47  1  0  0  0  0
  7 33  2  0  0  0  0
  7 35  1  0  0  0  0
  8 22  2  0  0  0  0
  8 27  1  0  0  0  0
  8 57  1  0  0  0  0
  9 35  2  0  0  0  0
  9 38  1  0  0  0  0
  9 58  1  0  0  0  0
 10 11  1  0  0  0  0
 10 12  1  0  0  0  0
 10 59  1  0  0  0  0
 10 60  1  0  0  0  0
 11 12  1  0  0  0  0
 11 23  1  0  0  0  0
 11 61  1  6  0  0  0
 12 47  1  0  0  0  0
 12 62  1  1  0  0  0
 13 14  2  0  0  0  0
 13 40  1  0  0  0  0
 13 63  1  0  0  0  0
 14 40  1  0  0  0  0
 14 64  1  0  0  0  0
 15 16  2  0  0  0  0
 16 24  1  0  0  0  0
 16 39  2  0  0  0  0
 16 40  1  0  0  0  0
 17 25  1  0  0  0  0
 17 42  1  0  0  0  0
 17 43  1  1  0  0  0
 17 44  1  0  0  0  0
 18 19  2  0  0  0  0
 19 44  1  0  0  0  0
 19 49  1  0  0  0  0
 20 65  1  0  0  0  0
 20 66  1  0  0  0  0
 20 67  1  0  0  0  0
 21 25  1  0  0  0  0
 21 45  1  0  0  0  0
 21 68  1  0  0  0  0
 21 69  1  0  0  0  0
 22 35  1  0  0  0  0
 22 36  1  0  0  0  0
 23 31  1  0  0  0  0
 23 70  1  0  0  0  0
 23 71  1  0  0  0  0
 24 43  1  0  0  0  0
 24 72  1  0  0  0  0
 25 42  1  0  0  0  0
 25 73  1  1  0  0  0
 26 31  1  0  0  0  0
 26 32  1  0  0  0  0
 26 74  1  0  0  0  0
 26 75  1  0  0  0  0
 27 38  2  0  0  0  0
 27 76  1  0  0  0  0
 28 33  1  0  0  0  0
 28 52  1  0  0  0  0
 29 30  1  0  0  0  0
 29 77  1  0  0  0  0
 29 78  1  0  0  0  0
 29 79  1  0  0  0  0
 30 38  1  0  0  0  0
 31 80  1  0  0  0  0
 31 81  1  0  0  0  0
 32 37  1  0  0  0  0
 32 82  1  0  0  0  0
 32 83  1  0  0  0  0
 33 34  1  0  0  0  0
 34 36  2  0  0  0  0
 34 37  1  0  0  0  0
 37 84  1  0  0  0  0
 37 85  1  0  0  0  0
 40 86  1  1  0  0  0
 41 43  2  0  0  0  0
 42 87  1  0  0  0  0
 42 88  1  0  0  0  0
 44 89  1  0  0  0  0
 45 90  1  0  0  0  0
 45 91  1  0  0  0  0
 45 92  1  0  0  0  0
 48 49  1  0  0  0  0
 48 52  1  0  0  0  0
 48 93  1  0  0  0  0
 48 94  1  0  0  0  0
 49 50  1  0  0  0  0
 49 95  1  6  0  0  0
 50 51  1  0  0  0  0
 51 52  1  0  0  0  0
 51 96  1  0  0  0  0
 51 97  1  0  0  0  0
 52 98  1  1  0  0  0
 53 99  1  0  0  0  0
 53100  1  0  0  0  0
 53101  1  0  0  0  0
 54102  1  0  0  0  0
 54103  1  0  0  0  0
 54104  1  0  0  0  0
M  END
$$$$
