SUE
 OpenBabel04091915213D

104110  0  0  1  0  0  0  0  0999 V2000
    2.4299   -9.7197   31.0911 C   0  0  0  0  0  0  0  0  0  0  0  0
    1.4077  -11.8492   31.5006 N   0  0  0  0  0  0  0  0  0  0  0  0
    1.8770   -9.5694   29.9950 O   0  0  0  0  0  0  0  0  0  0  0  0
    2.6310  -11.0861   31.6861 C   0  0  1  0  0  0  0  0  0  0  0  0
    3.8897  -11.7849   31.1544 C   0  0  0  0  0  0  0  0  0  0  0  0
    0.5098  -11.9300   32.5198 C   0  0  0  0  0  0  0  0  0  0  0  0
    2.6898   -5.6435   35.5383 N   0  0  0  0  0  0  0  0  0  0  0  0
    0.4052   -3.3435   37.1894 C   0  0  0  0  0  0  0  0  0  0  0  0
    3.1462   -3.8719   36.9514 C   0  0  0  0  0  0  0  0  0  0  0  0
   -2.9538  -13.1451   33.0324 C   0  0  0  0  0  0  0  0  0  0  0  0
   -2.4686  -11.8034   33.4737 C   0  0  2  0  0  0  0  0  0  0  0  0
   -1.4858  -12.9172   33.2623 C   0  0  2  0  0  0  0  0  0  0  0  0
    7.5748   -1.9360   28.4883 C   0  0  0  0  0  0  0  0  0  0  0  0
    6.3591   -1.7981   28.9307 C   0  0  0  0  0  0  0  0  0  0  0  0
    5.7819   -3.3179   26.3532 O   0  0  0  0  0  0  0  0  0  0  0  0
    6.2757   -4.2231   27.3697 S   0  0  0  0  0  0  0  0  0  0  0  0
    3.0200   -6.6903   27.6820 C   0  0  2  0  0  0  0  0  0  0  0  0
    4.6254   -7.7773   29.7307 O   0  0  0  0  0  0  0  0  0  0  0  0
    3.5456   -7.2711   30.0025 C   0  0  0  0  0  0  0  0  0  0  0  0
    4.1905  -12.9105   32.1343 C   0  0  0  0  0  0  0  0  0  0  0  0
    3.1921   -8.5859   25.8458 C   0  0  0  0  0  0  0  0  0  0  0  0
    0.8266   -4.3687   36.4348 C   0  0  0  0  0  0  0  0  0  0  0  0
   -2.6180  -11.3266   34.8734 C   0  0  0  0  0  0  0  0  0  0  0  0
    4.9618   -5.0982   27.9687 N   0  0  0  0  0  0  0  0  0  0  0  0
    2.5371   -7.9996   27.0456 C   0  0  2  0  0  0  0  0  0  0  0  0
   -1.2082   -9.2899   34.6980 C   0  0  0  0  0  0  0  0  0  0  0  0
    1.3450   -2.5466   37.8483 C   0  0  0  0  0  0  0  0  0  0  0  0
    2.1239   -7.4265   34.1775 O   0  0  0  0  0  0  0  0  0  0  0  0
    4.9316   -2.2283   38.3332 C   0  0  0  0  0  0  0  0  0  0  0  0
    3.5296   -1.9803   38.4207 O   0  0  0  0  0  0  0  0  0  0  0  0
   -2.6148   -9.8208   34.8912 C   0  0  0  0  0  0  0  0  0  0  0  0
   -1.1055   -7.9493   35.3759 C   0  0  0  0  0  0  0  0  0  0  0  0
    1.7375   -6.3629   34.9364 C   0  0  0  0  0  0  0  0  0  0  0  0
    0.3960   -6.0939   35.0507 C   0  0  0  0  0  0  0  0  0  0  0  0
    2.2199   -4.6565   36.2896 C   0  0  0  0  0  0  0  0  0  0  0  0
   -0.0944   -5.0981   35.8085 N   0  0  0  0  0  0  0  0  0  0  0  0
   -0.6341   -6.9108   34.3878 C   0  0  0  0  0  0  0  0  0  0  0  0
    2.7439   -2.8272   37.7216 C   0  0  0  0  0  0  0  0  0  0  0  0
    7.3569   -5.1512   27.1136 O   0  0  0  0  0  0  0  0  0  0  0  0
    6.8569   -3.1453   28.8024 C   0  0  1  0  0  0  0  0  0  0  0  0
    4.4676   -5.9461   25.8969 O   0  0  0  0  0  0  0  0  0  0  0  0
    1.7646   -6.7331   26.8182 C   0  0  0  0  0  0  0  0  0  0  0  0
    4.2246   -5.9288   27.1078 C   0  0  0  0  0  0  0  0  0  0  0  0
    2.7905   -6.5573   29.1078 N   0  0  0  0  0  0  0  0  0  0  0  0
    4.1042   -9.7479   26.1276 C   0  0  0  0  0  0  0  0  0  0  0  0
    0.7034  -11.4495   33.6159 O   0  0  0  0  0  0  0  0  0  0  0  0
   -0.5890  -12.6697   32.1612 O   0  0  0  0  0  0  0  0  0  0  0  0
    3.5665   -6.4963   32.4222 C   0  0  0  0  0  0  0  0  0  0  0  0
    2.8649   -7.3345   31.3502 C   0  0  2  0  0  0  0  0  0  0  0  0
    2.9661   -8.6815   31.8142 N   0  0  0  0  0  0  0  0  0  0  0  0
    3.6344   -8.7448   33.1081 C   0  0  0  0  0  0  0  0  0  0  0  0
    3.4457   -7.3672   33.6743 C   0  0  2  0  0  0  0  0  0  0  0  0
    5.1159  -10.8810   31.0962 C   0  0  0  0  0  0  0  0  0  0  0  0
    3.7145  -12.3458   29.7509 C   0  0  0  0  0  0  0  0  0  0  0  0
    1.1522  -12.1947   30.5834 H   0  0  0  0  0  0  0  0  0  0  0  0
    2.7557  -10.9631   32.7602 H   0  0  0  0  0  0  0  0  0  0  0  0
   -0.6533   -3.1126   37.2946 H   0  0  0  0  0  0  0  0  0  0  0  0
    4.1791   -4.1397   36.8154 H   0  0  0  0  0  0  0  0  0  0  0  0
   -3.3151  -13.2561   32.0201 H   0  0  0  0  0  0  0  0  0  0  0  0
   -3.5291  -13.7152   33.7557 H   0  0  0  0  0  0  0  0  0  0  0  0
   -2.4994  -10.9977   32.7448 H   0  0  0  0  0  0  0  0  0  0  0  0
   -1.0575  -13.3958   34.1440 H   0  0  0  0  0  0  0  0  0  0  0  0
    8.4735   -1.5365   28.0949 H   0  0  0  0  0  0  0  0  0  0  0  0
    5.5309   -1.1800   29.1681 H   0  0  0  0  0  0  0  0  0  0  0  0
    5.0753  -13.4651   31.8210 H   0  0  0  0  0  0  0  0  0  0  0  0
    3.3378  -13.5918   32.1905 H   0  0  0  0  0  0  0  0  0  0  0  0
    4.3718  -12.4941   33.1330 H   0  0  0  0  0  0  0  0  0  0  0  0
    3.7845   -7.8341   25.3409 H   0  0  0  0  0  0  0  0  0  0  0  0
    2.4158   -8.8840   25.1396 H   0  0  0  0  0  0  0  0  0  0  0  0
   -1.7979  -11.7022   35.5010 H   0  0  0  0  0  0  0  0  0  0  0  0
   -3.5586  -11.6830   35.2974 H   0  0  0  0  0  0  0  0  0  0  0  0
    4.7565   -5.0973   28.9584 H   0  0  0  0  0  0  0  0  0  0  0  0
    2.0941   -8.7621   27.6829 H   0  0  0  0  0  0  0  0  0  0  0  0
   -0.9840   -9.2181   33.6257 H   0  0  0  0  0  0  0  0  0  0  0  0
   -0.4630   -9.9509   35.1533 H   0  0  0  0  0  0  0  0  0  0  0  0
    1.0345   -1.7278   38.4512 H   0  0  0  0  0  0  0  0  0  0  0  0
    5.4260   -1.4728   38.9381 H   0  0  0  0  0  0  0  0  0  0  0  0
    5.2863   -2.1317   37.2991 H   0  0  0  0  0  0  0  0  0  0  0  0
    5.1843   -3.2172   38.7366 H   0  0  0  0  0  0  0  0  0  0  0  0
   -3.0272   -9.4908   35.8471 H   0  0  0  0  0  0  0  0  0  0  0  0
   -3.2485   -9.4313   34.0843 H   0  0  0  0  0  0  0  0  0  0  0  0
   -0.4183   -8.0546   36.2268 H   0  0  0  0  0  0  0  0  0  0  0  0
   -2.0780   -7.6336   35.7704 H   0  0  0  0  0  0  0  0  0  0  0  0
   -1.4705   -6.2587   34.1133 H   0  0  0  0  0  0  0  0  0  0  0  0
   -0.2174   -7.3371   33.4727 H   0  0  0  0  0  0  0  0  0  0  0  0
    7.1273   -3.6504   29.7173 H   0  0  0  0  0  0  0  0  0  0  0  0
    1.8267   -6.2890   25.8307 H   0  0  0  0  0  0  0  0  0  0  0  0
    0.7951   -6.6144   27.2836 H   0  0  0  0  0  0  0  0  0  0  0  0
    1.8655   -6.2438   29.3967 H   0  0  0  0  0  0  0  0  0  0  0  0
    4.5503  -10.0769   25.1837 H   0  0  0  0  0  0  0  0  0  0  0  0
    3.5410  -10.5771   26.5576 H   0  0  0  0  0  0  0  0  0  0  0  0
    4.9081   -9.4644   26.8126 H   0  0  0  0  0  0  0  0  0  0  0  0
    3.0674   -5.5335   32.5516 H   0  0  0  0  0  0  0  0  0  0  0  0
    4.6238   -6.3264   32.1787 H   0  0  0  0  0  0  0  0  0  0  0  0
    1.8139   -7.0228   31.2646 H   0  0  0  0  0  0  0  0  0  0  0  0
    4.6927   -8.9316   32.9477 H   0  0  0  0  0  0  0  0  0  0  0  0
    3.1886   -9.4893   33.7659 H   0  0  0  0  0  0  0  0  0  0  0  0
    4.2089   -7.1628   34.4326 H   0  0  0  0  0  0  0  0  0  0  0  0
    4.9603  -10.0618   30.3907 H   0  0  0  0  0  0  0  0  0  0  0  0
    5.9946  -11.4365   30.7645 H   0  0  0  0  0  0  0  0  0  0  0  0
    5.3492  -10.4836   32.0792 H   0  0  0  0  0  0  0  0  0  0  0  0
    2.8648  -13.0261   29.7046 H   0  0  0  0  0  0  0  0  0  0  0  0
    4.6095  -12.9051   29.4601 H   0  0  0  0  0  0  0  0  0  0  0  0
    3.5708  -11.5366   29.0278 H   0  0  0  0  0  0  0  0  0  0  0  0
  1  3  2  0  0  0  0
  1  4  1  0  0  0  0
  1 50  1  0  0  0  0
  2  4  1  0  0  0  0
  2  6  1  0  0  0  0
  2 55  1  0  0  0  0
  4  5  1  0  0  0  0
  4 56  1  1  0  0  0
  5 20  1  0  0  0  0
  5 53  1  0  0  0  0
  5 54  1  0  0  0  0
  6 46  2  0  0  0  0
  6 47  1  0  0  0  0
  7 33  2  0  0  0  0
  7 35  1  0  0  0  0
  8 22  2  0  0  0  0
  8 27  1  0  0  0  0
  8 57  1  0  0  0  0
  9 35  2  0  0  0  0
  9 38  1  0  0  0  0
  9 58  1  0  0  0  0
 10 11  1  0  0  0  0
 10 12  1  0  0  0  0
 10 59  1  0  0  0  0
 10 60  1  0  0  0  0
 11 12  1  0  0  0  0
 11 23  1  0  0  0  0
 11 61  1  6  0  0  0
 12 47  1  0  0  0  0
 12 62  1  1  0  0  0
 13 14  2  0  0  0  0
 13 40  1  0  0  0  0
 13 63  1  0  0  0  0
 14 40  1  0  0  0  0
 14 64  1  0  0  0  0
 15 16  2  0  0  0  0
 16 24  1  0  0  0  0
 16 39  2  0  0  0  0
 16 40  1  0  0  0  0
 17 25  1  0  0  0  0
 17 42  1  0  0  0  0
 17 43  1  6  0  0  0
 17 44  1  0  0  0  0
 18 19  2  0  0  0  0
 19 44  1  0  0  0  0
 19 49  1  0  0  0  0
 20 65  1  0  0  0  0
 20 66  1  0  0  0  0
 20 67  1  0  0  0  0
 21 25  1  0  0  0  0
 21 45  1  0  0  0  0
 21 68  1  0  0  0  0
 21 69  1  0  0  0  0
 22 35  1  0  0  0  0
 22 36  1  0  0  0  0
 23 31  1  0  0  0  0
 23 70  1  0  0  0  0
 23 71  1  0  0  0  0
 24 43  1  0  0  0  0
 24 72  1  0  0  0  0
 25 42  1  0  0  0  0
 25 73  1  1  0  0  0
 26 31  1  0  0  0  0
 26 32  1  0  0  0  0
 26 74  1  0  0  0  0
 26 75  1  0  0  0  0
 27 38  2  0  0  0  0
 27 76  1  0  0  0  0
 28 33  1  0  0  0  0
 28 52  1  0  0  0  0
 29 30  1  0  0  0  0
 29 77  1  0  0  0  0
 29 78  1  0  0  0  0
 29 79  1  0  0  0  0
 30 38  1  0  0  0  0
 31 80  1  0  0  0  0
 31 81  1  0  0  0  0
 32 37  1  0  0  0  0
 32 82  1  0  0  0  0
 32 83  1  0  0  0  0
 33 34  1  0  0  0  0
 34 36  2  0  0  0  0
 34 37  1  0  0  0  0
 37 84  1  0  0  0  0
 37 85  1  0  0  0  0
 40 86  1  1  0  0  0
 41 43  2  0  0  0  0
 42 87  1  0  0  0  0
 42 88  1  0  0  0  0
 44 89  1  0  0  0  0
 45 90  1  0  0  0  0
 45 91  1  0  0  0  0
 45 92  1  0  0  0  0
 48 49  1  0  0  0  0
 48 52  1  0  0  0  0
 48 93  1  0  0  0  0
 48 94  1  0  0  0  0
 49 50  1  0  0  0  0
 49 95  1  6  0  0  0
 50 51  1  0  0  0  0
 51 52  1  0  0  0  0
 51 96  1  0  0  0  0
 51 97  1  0  0  0  0
 52 98  1  1  0  0  0
 53 99  1  0  0  0  0
 53100  1  0  0  0  0
 53101  1  0  0  0  0
 54102  1  0  0  0  0
 54103  1  0  0  0  0
 54104  1  0  0  0  0
M  END
$$$$
