SUE
 OpenBabel04091915213D

104110  0  0  1  0  0  0  0  0999 V2000
   12.0088    9.1980   16.2254 C   0  0  0  0  0  0  0  0  0  0  0  0
   13.1793   11.1962   16.6504 N   0  0  0  0  0  0  0  0  0  0  0  0
   12.4829    9.0259   15.0793 O   0  0  0  0  0  0  0  0  0  0  0  0
   11.8964   10.5589   16.8091 C   0  0  1  0  0  0  0  0  0  0  0  0
   10.8098   11.3508   16.0990 C   0  0  0  0  0  0  0  0  0  0  0  0
   14.0315   11.3423   17.6657 C   0  0  0  0  0  0  0  0  0  0  0  0
   11.8299    4.9922   20.5146 N   0  0  0  0  0  0  0  0  0  0  0  0
   13.9925    2.3849   21.9019 C   0  0  0  0  0  0  0  0  0  0  0  0
   11.3127    3.2028   21.7956 C   0  0  0  0  0  0  0  0  0  0  0  0
   17.5345   12.2987   17.9771 C   0  0  0  0  0  0  0  0  0  0  0  0
   17.0706   10.9233   18.3632 C   0  0  2  0  0  0  0  0  0  0  0  0
   16.1082   12.0877   18.3865 C   0  0  2  0  0  0  0  0  0  0  0  0
    6.2954    1.8241   13.7101 C   0  0  0  0  0  0  0  0  0  0  0  0
    7.4434    1.6621   14.3148 C   0  0  0  0  0  0  0  0  0  0  0  0
    8.2010    2.9370   11.6905 O   0  0  0  0  0  0  0  0  0  0  0  0
    7.7820    3.9263   12.6480 S   0  0  0  0  0  0  0  0  0  0  0  0
   11.2078    6.0449   12.8946 C   0  0  2  0  0  0  0  0  0  0  0  0
    9.8709    7.3601   14.9156 O   0  0  0  0  0  0  0  0  0  0  0  0
   10.9165    6.7631   15.1760 C   0  0  0  0  0  0  0  0  0  0  0  0
   10.5359   12.5726   16.9379 C   0  0  0  0  0  0  0  0  0  0  0  0
   10.6010    7.9982   11.3461 C   0  0  0  0  0  0  0  0  0  0  0  0
   13.6259    3.5290   21.2006 C   0  0  0  0  0  0  0  0  0  0  0  0
   17.4859   10.3376   19.6680 C   0  0  0  0  0  0  0  0  0  0  0  0
    9.1347    4.6645   13.2731 N   0  0  0  0  0  0  0  0  0  0  0  0
   11.5953    7.3671   12.2467 C   0  0  2  0  0  0  0  0  0  0  0  0
   15.8172    8.4480   19.7196 C   0  0  0  0  0  0  0  0  0  0  0  0
   13.0097    1.6866   22.5472 C   0  0  0  0  0  0  0  0  0  0  0  0
   12.4377    6.7841   19.1968 O   0  0  0  0  0  0  0  0  0  0  0  0
    9.5035    1.2174   22.6924 C   0  0  0  0  0  0  0  0  0  0  0  0
   10.8198    1.3073   23.2190 O   0  0  0  0  0  0  0  0  0  0  0  0
   17.2934    8.8325   19.6979 C   0  0  0  0  0  0  0  0  0  0  0  0
   15.6318    7.0550   20.2764 C   0  0  0  0  0  0  0  0  0  0  0  0
   12.7731    5.6689   19.8836 C   0  0  0  0  0  0  0  0  0  0  0  0
   14.1039    5.2750   19.8968 C   0  0  0  0  0  0  0  0  0  0  0  0
   12.2665    3.9229   21.1672 C   0  0  0  0  0  0  0  0  0  0  0  0
   14.5531    4.1936   20.5692 N   0  0  0  0  0  0  0  0  0  0  0  0
   15.1118    6.1019   19.2245 C   0  0  0  0  0  0  0  0  0  0  0  0
   11.6420    2.0696   22.5119 C   0  0  0  0  0  0  0  0  0  0  0  0
    6.8285    4.9753   12.2941 O   0  0  0  0  0  0  0  0  0  0  0  0
    7.0143    3.0115   14.0742 C   0  0  1  0  0  0  0  0  0  0  0  0
    9.6880    5.3318   11.2081 O   0  0  0  0  0  0  0  0  0  0  0  0
   12.3031    6.1068   11.8581 C   0  0  0  0  0  0  0  0  0  0  0  0
    9.9420    5.3571   12.3965 C   0  0  0  0  0  0  0  0  0  0  0  0
   11.5561    5.9474   14.2843 N   0  0  0  0  0  0  0  0  0  0  0  0
   11.2402    8.7846   10.2491 C   0  0  0  0  0  0  0  0  0  0  0  0
   13.8012   10.8884   18.7901 O   0  0  0  0  0  0  0  0  0  0  0  0
   15.1306   12.0390   17.3360 O   0  0  0  0  0  0  0  0  0  0  0  0
   10.7936    6.0427   17.5373 C   0  0  0  0  0  0  0  0  0  0  0  0
   11.5787    6.8219   16.5045 C   0  0  2  0  0  0  0  0  0  0  0  0
   11.4978    8.1817   16.9674 N   0  0  0  0  0  0  0  0  0  0  0  0
   10.9087    8.2557   18.2953 C   0  0  0  0  0  0  0  0  0  0  0  0
   11.0711    6.8461   18.7996 C   0  0  2  0  0  0  0  0  0  0  0  0
    9.4859   10.6206   15.9910 C   0  0  0  0  0  0  0  0  0  0  0  0
   11.2611   11.7969   14.7178 C   0  0  0  0  0  0  0  0  0  0  0  0
   13.4934   11.4917   15.7380 H   0  0  0  0  0  0  0  0  0  0  0  0
   11.6441   10.4653   17.8632 H   0  0  0  0  0  0  0  0  0  0  0  0
   15.0280    2.1020   21.9155 H   0  0  0  0  0  0  0  0  0  0  0  0
   10.3001    3.5623   21.7871 H   0  0  0  0  0  0  0  0  0  0  0  0
   17.7234   12.5195   16.9350 H   0  0  0  0  0  0  0  0  0  0  0  0
   18.2032   12.8167   18.6543 H   0  0  0  0  0  0  0  0  0  0  0  0
   16.9613   10.1789   17.5763 H   0  0  0  0  0  0  0  0  0  0  0  0
   15.7841   12.4837   19.3520 H   0  0  0  0  0  0  0  0  0  0  0  0
    5.4506    1.4766   13.1565 H   0  0  0  0  0  0  0  0  0  0  0  0
    8.2610    1.0468   14.6331 H   0  0  0  0  0  0  0  0  0  0  0  0
    9.7650   13.1691   16.4482 H   0  0  0  0  0  0  0  0  0  0  0  0
   11.4519   13.1541   17.0360 H   0  0  0  0  0  0  0  0  0  0  0  0
   10.1844   12.2582   17.9257 H   0  0  0  0  0  0  0  0  0  0  0  0
    9.9160    8.6154   11.9260 H   0  0  0  0  0  0  0  0  0  0  0  0
   10.0047    7.2537   10.8378 H   0  0  0  0  0  0  0  0  0  0  0  0
   16.9079   10.7967   20.4784 H   0  0  0  0  0  0  0  0  0  0  0  0
   18.5427   10.5702   19.8363 H   0  0  0  0  0  0  0  0  0  0  0  0
    9.3417    4.6297   14.2622 H   0  0  0  0  0  0  0  0  0  0  0  0
   12.1267    8.1012   12.8412 H   0  0  0  0  0  0  0  0  0  0  0  0
   15.4000    8.5084   18.7090 H   0  0  0  0  0  0  0  0  0  0  0  0
   15.2525    9.1351   20.3592 H   0  0  0  0  0  0  0  0  0  0  0  0
   13.2944    0.8038   23.1095 H   0  0  0  0  0  0  0  0  0  0  0  0
    8.9345    0.5844   23.3780 H   0  0  0  0  0  0  0  0  0  0  0  0
    9.5208    0.7457   21.7026 H   0  0  0  0  0  0  0  0  0  0  0  0
    9.0124    2.1942   22.6449 H   0  0  0  0  0  0  0  0  0  0  0  0
   17.7966    8.4435   20.5883 H   0  0  0  0  0  0  0  0  0  0  0  0
   17.7661    8.3869   18.8148 H   0  0  0  0  0  0  0  0  0  0  0  0
   14.9319    7.1149   21.1242 H   0  0  0  0  0  0  0  0  0  0  0  0
   16.5755    6.6510   20.6500 H   0  0  0  0  0  0  0  0  0  0  0  0
   15.8946    5.4341   18.8603 H   0  0  0  0  0  0  0  0  0  0  0  0
   14.6359    6.6025   18.3775 H   0  0  0  0  0  0  0  0  0  0  0  0
    6.6590    3.5868   14.9276 H   0  0  0  0  0  0  0  0  0  0  0  0
   12.0776    5.6926   10.8839 H   0  0  0  0  0  0  0  0  0  0  0  0
   13.3236    5.9418   12.1691 H   0  0  0  0  0  0  0  0  0  0  0  0
   12.4478    5.5383   14.5486 H   0  0  0  0  0  0  0  0  0  0  0  0
   10.4546    9.1852    9.6050 H   0  0  0  0  0  0  0  0  0  0  0  0
   11.8980    8.1435    9.6540 H   0  0  0  0  0  0  0  0  0  0  0  0
   11.8166    9.5990   10.6827 H   0  0  0  0  0  0  0  0  0  0  0  0
   11.1499    5.0168   17.5941 H   0  0  0  0  0  0  0  0  0  0  0  0
    9.7184    6.0463   17.2999 H   0  0  0  0  0  0  0  0  0  0  0  0
   12.6170    6.4762   16.4308 H   0  0  0  0  0  0  0  0  0  0  0  0
    9.8533    8.5229   18.2039 H   0  0  0  0  0  0  0  0  0  0  0  0
   11.4466    8.9560   18.9294 H   0  0  0  0  0  0  0  0  0  0  0  0
   10.3701    6.6483   19.6078 H   0  0  0  0  0  0  0  0  0  0  0  0
    9.5891    9.7206   15.3903 H   0  0  0  0  0  0  0  0  0  0  0  0
    8.7537   11.2769   15.5091 H   0  0  0  0  0  0  0  0  0  0  0  0
    9.1207   10.3614   16.9889 H   0  0  0  0  0  0  0  0  0  0  0  0
   12.2082   12.3359   14.7806 H   0  0  0  0  0  0  0  0  0  0  0  0
   10.5382   12.4879   14.2906 H   0  0  0  0  0  0  0  0  0  0  0  0
   11.3834   10.9402   14.0522 H   0  0  0  0  0  0  0  0  0  0  0  0
  1  3  2  0  0  0  0
  1  4  1  0  0  0  0
  1 50  1  0  0  0  0
  2  4  1  0  0  0  0
  2  6  1  0  0  0  0
  2 55  1  0  0  0  0
  4  5  1  0  0  0  0
  4 56  1  1  0  0  0
  5 20  1  0  0  0  0
  5 53  1  0  0  0  0
  5 54  1  0  0  0  0
  6 46  2  0  0  0  0
  6 47  1  0  0  0  0
  7 33  2  0  0  0  0
  7 35  1  0  0  0  0
  8 22  2  0  0  0  0
  8 27  1  0  0  0  0
  8 57  1  0  0  0  0
  9 35  2  0  0  0  0
  9 38  1  0  0  0  0
  9 58  1  0  0  0  0
 10 11  1  0  0  0  0
 10 12  1  0  0  0  0
 10 59  1  0  0  0  0
 10 60  1  0  0  0  0
 11 12  1  0  0  0  0
 11 23  1  0  0  0  0
 11 61  1  6  0  0  0
 12 47  1  0  0  0  0
 12 62  1  1  0  0  0
 13 14  2  0  0  0  0
 13 40  1  0  0  0  0
 13 63  1  0  0  0  0
 14 40  1  0  0  0  0
 14 64  1  0  0  0  0
 15 16  2  0  0  0  0
 16 24  1  0  0  0  0
 16 39  2  0  0  0  0
 16 40  1  0  0  0  0
 17 25  1  0  0  0  0
 17 42  1  0  0  0  0
 17 43  1  6  0  0  0
 17 44  1  0  0  0  0
 18 19  2  0  0  0  0
 19 44  1  0  0  0  0
 19 49  1  0  0  0  0
 20 65  1  0  0  0  0
 20 66  1  0  0  0  0
 20 67  1  0  0  0  0
 21 25  1  0  0  0  0
 21 45  1  0  0  0  0
 21 68  1  0  0  0  0
 21 69  1  0  0  0  0
 22 35  1  0  0  0  0
 22 36  1  0  0  0  0
 23 31  1  0  0  0  0
 23 70  1  0  0  0  0
 23 71  1  0  0  0  0
 24 43  1  0  0  0  0
 24 72  1  0  0  0  0
 25 42  1  0  0  0  0
 25 73  1  1  0  0  0
 26 31  1  0  0  0  0
 26 32  1  0  0  0  0
 26 74  1  0  0  0  0
 26 75  1  0  0  0  0
 27 38  2  0  0  0  0
 27 76  1  0  0  0  0
 28 33  1  0  0  0  0
 28 52  1  0  0  0  0
 29 30  1  0  0  0  0
 29 77  1  0  0  0  0
 29 78  1  0  0  0  0
 29 79  1  0  0  0  0
 30 38  1  0  0  0  0
 31 80  1  0  0  0  0
 31 81  1  0  0  0  0
 32 37  1  0  0  0  0
 32 82  1  0  0  0  0
 32 83  1  0  0  0  0
 33 34  1  0  0  0  0
 34 36  2  0  0  0  0
 34 37  1  0  0  0  0
 37 84  1  0  0  0  0
 37 85  1  0  0  0  0
 40 86  1  1  0  0  0
 41 43  2  0  0  0  0
 42 87  1  0  0  0  0
 42 88  1  0  0  0  0
 44 89  1  0  0  0  0
 45 90  1  0  0  0  0
 45 91  1  0  0  0  0
 45 92  1  0  0  0  0
 48 49  1  0  0  0  0
 48 52  1  0  0  0  0
 48 93  1  0  0  0  0
 48 94  1  0  0  0  0
 49 50  1  0  0  0  0
 49 95  1  6  0  0  0
 50 51  1  0  0  0  0
 51 52  1  0  0  0  0
 51 96  1  0  0  0  0
 51 97  1  0  0  0  0
 52 98  1  1  0  0  0
 53 99  1  0  0  0  0
 53100  1  0  0  0  0
 53101  1  0  0  0  0
 54102  1  0  0  0  0
 54103  1  0  0  0  0
 54104  1  0  0  0  0
M  END
$$$$
