SX5
 OpenBabel04091911133D

 47 48  0  0  1  0  0  0  0  0999 V2000
  -26.6529    3.3631  -16.0084 O   0  0  0  0  0  0  0  0  0  0  0  0
  -27.4127    3.3368  -14.9951 C   0  0  0  0  0  0  0  0  0  0  0  0
  -27.6813    2.3958  -14.2294 O   0  0  0  0  0  0  0  0  0  0  0  0
  -28.1814    4.6341  -14.6307 C   0  0  0  0  0  0  0  0  0  0  0  0
  -27.5021    5.9060  -15.0777 C   0  0  0  0  0  0  0  0  0  0  0  0
  -26.1811    6.1494  -14.3560 C   0  0  0  0  0  0  0  0  0  0  0  0
  -25.8134    5.5508  -13.3568 O   0  0  0  0  0  0  0  0  0  0  0  0
  -25.4949    7.2195  -14.9241 N   0  0  0  0  0  0  0  0  0  0  0  0
  -24.2766    7.7215  -14.4347 C   0  0  0  0  0  0  0  0  0  0  0  0
  -23.2024    6.8519  -14.1872 C   0  0  0  0  0  0  0  0  0  0  0  0
  -21.9857    7.3503  -13.7149 C   0  0  0  0  0  0  0  0  0  0  0  0
  -21.8461    8.7174  -13.4853 C   0  0  0  0  0  0  0  0  0  0  0  0
  -20.1980    9.3668  -12.8303 Br  0  0  0  0  0  0  0  0  0  0  0  0
  -22.8995    9.6003  -13.7291 C   0  0  0  0  0  0  0  0  0  0  0  0
  -24.1217    9.0969  -14.2024 C   0  0  0  0  0  0  0  0  0  0  0  0
  -25.2181   10.0617  -14.4895 C   0  0  0  0  0  0  0  0  0  0  0  0
  -25.0008   10.8287  -15.4241 O   0  0  0  0  0  0  0  0  0  0  0  0
  -26.3857   10.1164  -13.7097 N   0  0  0  0  0  0  0  0  0  0  0  0
  -26.5381    9.4430  -12.4175 C   0  0  0  0  0  0  0  0  0  0  0  0
  -26.9296   10.3961  -11.2753 C   0  0  2  0  0  0  0  0  0  0  0  0
  -27.2826    9.5984  -10.0256 C   0  0  0  0  0  0  0  0  0  0  0  0
  -28.0977   11.2985  -11.6710 C   0  0  0  0  0  0  0  0  0  0  0  0
  -27.3900   11.1309  -14.0607 C   0  0  0  0  0  0  0  0  0  0  0  0
  -27.6997   12.0944  -12.9085 C   0  0  1  0  0  0  0  0  0  0  0  0
  -28.7944   13.0827  -13.2956 C   0  0  0  0  0  0  0  0  0  0  0  0
  -28.2980    4.6443  -13.5339 H   0  0  0  0  0  0  0  0  0  0  0  0
  -29.1923    4.5885  -15.0686 H   0  0  0  0  0  0  0  0  0  0  0  0
  -28.1717    6.7589  -14.8928 H   0  0  0  0  0  0  0  0  0  0  0  0
  -27.2943    5.8463  -16.1481 H   0  0  0  0  0  0  0  0  0  0  0  0
  -25.9246    7.6904  -15.7092 H   0  0  0  0  0  0  0  0  0  0  0  0
  -23.3058    5.7824  -14.3717 H   0  0  0  0  0  0  0  0  0  0  0  0
  -21.1560    6.6719  -13.5215 H   0  0  0  0  0  0  0  0  0  0  0  0
  -22.7753   10.6669  -13.5541 H   0  0  0  0  0  0  0  0  0  0  0  0
  -25.5874    8.9805  -12.1477 H   0  0  0  0  0  0  0  0  0  0  0  0
  -27.3069    8.6687  -12.5041 H   0  0  0  0  0  0  0  0  0  0  0  0
  -26.0685   11.0357  -11.0450 H   0  0  0  0  0  0  0  0  0  0  0  0
  -27.5647   10.2747   -9.2105 H   0  0  0  0  0  0  0  0  0  0  0  0
  -26.4207    9.0019   -9.7055 H   0  0  0  0  0  0  0  0  0  0  0  0
  -28.1228    8.9222  -10.2272 H   0  0  0  0  0  0  0  0  0  0  0  0
  -28.3359   11.9846  -10.8473 H   0  0  0  0  0  0  0  0  0  0  0  0
  -28.9893   10.6916  -11.8852 H   0  0  0  0  0  0  0  0  0  0  0  0
  -28.3175   10.6298  -14.3619 H   0  0  0  0  0  0  0  0  0  0  0  0
  -27.0213   11.7244  -14.9021 H   0  0  0  0  0  0  0  0  0  0  0  0
  -26.7959   12.6695  -12.6735 H   0  0  0  0  0  0  0  0  0  0  0  0
  -29.0060   13.7623  -12.4603 H   0  0  0  0  0  0  0  0  0  0  0  0
  -29.7176   12.5533  -13.5594 H   0  0  0  0  0  0  0  0  0  0  0  0
  -28.4725   13.6801  -14.1571 H   0  0  0  0  0  0  0  0  0  0  0  0
  1  2  2  0  0  0  0
  2  3  1  0  0  0  0
  2  4  1  0  0  0  0
  4  5  1  0  0  0  0
  4 26  1  0  0  0  0
  4 27  1  0  0  0  0
  5  6  1  0  0  0  0
  5 28  1  0  0  0  0
  5 29  1  0  0  0  0
  6  7  2  0  0  0  0
  6  8  1  0  0  0  0
  8  9  1  0  0  0  0
  8 30  1  0  0  0  0
  9 10  2  0  0  0  0
  9 15  1  0  0  0  0
 10 11  1  0  0  0  0
 10 31  1  0  0  0  0
 11 12  2  0  0  0  0
 11 32  1  0  0  0  0
 12 13  1  0  0  0  0
 12 14  1  0  0  0  0
 14 15  2  0  0  0  0
 14 33  1  0  0  0  0
 15 16  1  0  0  0  0
 16 17  2  0  0  0  0
 16 18  1  0  0  0  0
 18 19  1  0  0  0  0
 18 23  1  0  0  0  0
 19 20  1  0  0  0  0
 19 34  1  0  0  0  0
 19 35  1  0  0  0  0
 20 21  1  0  0  0  0
 20 22  1  0  0  0  0
 20 36  1  1  0  0  0
 21 37  1  0  0  0  0
 21 38  1  0  0  0  0
 21 39  1  0  0  0  0
 22 24  1  0  0  0  0
 22 40  1  0  0  0  0
 22 41  1  0  0  0  0
 23 24  1  0  0  0  0
 23 42  1  0  0  0  0
 23 43  1  0  0  0  0
 24 25  1  0  0  0  0
 24 44  1  1  0  0  0
 25 45  1  0  0  0  0
 25 46  1  0  0  0  0
 25 47  1  0  0  0  0
M  END
$$$$
