T5A
 OpenBabel04091915463D

 80 84  0  0  1  0  0  0  0  0999 V2000
    4.2922   -1.7472  139.9612 N   0  3  0  0  0  0  0  0  0  0  0  0
    4.5192   -0.4741  140.4594 C   0  0  0  0  0  0  0  0  0  0  0  0
    5.0281   -2.2549  138.9105 C   0  0  0  0  0  0  0  0  0  0  0  0
    4.9020   -3.3694  138.4083 O   0  0  0  0  0  0  0  0  0  0  0  0
    5.9744   -1.4114  138.3850 N   0  3  0  0  0  0  0  0  0  0  0  0
    6.1465   -0.0976  138.7191 C   0  0  0  0  0  0  0  0  0  0  0  0
    6.8758    0.6379  138.0612 O   0  0  0  0  0  0  0  0  0  0  0  0
    5.3883    0.3694  139.9145 C   0  0  0  0  0  0  0  0  0  0  0  0
    5.6406    1.7571  140.4004 C   0  0  0  0  0  0  0  0  0  0  0  0
    0.3327   -1.6428  142.3988 C   0  0  0  0  0  0  0  0  0  0  0  0
    1.1686   -2.5589  141.5239 C   0  0  1  0  0  0  0  0  0  0  0  0
    2.0226   -1.7937  140.6332 O   0  0  0  0  0  0  0  0  0  0  0  0
    3.2170   -2.5702  140.5038 C   0  0  2  0  0  0  0  0  0  0  0  0
    3.4856   -3.1788  141.8671 C   0  0  0  0  0  0  0  0  0  0  0  0
    2.0807   -3.5042  142.3296 C   0  0  2  0  0  0  0  0  0  0  0  0
    1.7759   -4.8632  141.9597 O   0  0  0  0  0  0  0  0  0  0  0  0
    0.5490   -0.1266  144.5094 P   0  0  2  0  0  0  0  0  0  0  0  0
   -0.4058    0.7553  143.7091 O   0  0  0  0  0  0  0  0  0  0  0  0
    1.7864    0.4746  145.1403 O   0  0  0  0  0  0  0  0  0  0  0  0
    1.2082   -1.0789  143.3454 O   0  0  0  0  0  0  0  0  0  0  0  0
   -0.1660   -1.2808  145.3570 O   0  0  0  0  0  0  0  0  0  0  0  0
   -1.3333   -1.1487  146.4363 P   0  0  2  0  0  0  0  0  0  0  0  0
   -2.6196   -1.7018  145.8003 O   0  0  0  0  0  0  0  0  0  0  0  0
   -1.4358    0.2512  146.9997 O   0  0  0  0  0  0  0  0  0  0  0  0
   -0.9523   -2.1880  147.5887 O   0  0  0  0  0  0  0  0  0  0  0  0
    0.2860   -3.0118  148.1911 P   0  0  1  0  0  0  0  0  0  0  0  0
   -0.1151   -4.4884  148.0950 O   0  0  0  0  0  0  0  0  0  0  0  0
    1.6100   -2.6415  147.5922 O   0  0  0  0  0  0  0  0  0  0  0  0
    0.1333   -2.6111  149.7495 O   0  0  0  0  0  0  0  0  0  0  0  0
    0.9950   -1.8600  150.8662 P   0  0  2  0  0  0  0  0  0  0  0  0
    1.1873   -0.3917  150.5819 O   0  0  0  0  0  0  0  0  0  0  0  0
    2.2063   -2.7069  151.2473 O   0  0  0  0  0  0  0  0  0  0  0  0
   -0.0424   -2.0233  152.0976 O   0  0  0  0  0  0  0  0  0  0  0  0
   -0.8560   -0.9817  152.9951 P   0  0  1  0  0  0  0  0  0  0  0  0
   -0.0062   -0.1725  153.9606 O   0  0  0  0  0  0  0  0  0  0  0  0
   -2.0797   -0.3679  152.3480 O   0  0  0  0  0  0  0  0  0  0  0  0
   -1.5229   -2.0655  154.0416 O   0  0  0  0  0  0  0  0  0  0  0  0
   -2.4986   -2.9708  153.5740 C   0  0  0  0  0  0  0  0  0  0  0  0
   -3.3006   -3.4699  154.7914 C   0  0  1  0  0  0  0  0  0  0  0  0
   -2.4303   -4.1477  155.7553 O   0  0  0  0  0  0  0  0  0  0  0  0
   -2.3804   -3.3541  156.9600 C   0  0  2  0  0  0  0  0  0  0  0  0
   -2.9653   -1.9642  156.6262 C   0  0  2  0  0  0  0  0  0  0  0  0
   -3.5692   -1.2884  157.7468 O   0  0  0  0  0  0  0  0  0  0  0  0
   -3.9963   -2.3484  155.5742 C   0  0  2  0  0  0  0  0  0  0  0  0
   -5.1523   -2.8885  156.2769 O   0  0  0  0  0  0  0  0  0  0  0  0
   -1.0475   -3.3797  157.5384 N   0  3  0  0  0  0  0  0  0  0  0  0
   -0.5656   -4.2563  158.5009 C   0  0  0  0  0  0  0  0  0  0  0  0
   -1.1449   -5.3383  159.0391 N   0  0  0  0  0  0  0  0  0  0  0  0
   -0.3046   -5.9541  159.9077 C   0  0  0  0  0  0  0  0  0  0  0  0
    0.9343   -5.5799  160.3243 N   0  0  0  0  0  0  0  0  0  0  0  0
    1.4369   -4.4386  159.8034 C   0  0  0  0  0  0  0  0  0  0  0  0
    2.6502   -3.9546  160.2918 N   0  0  0  0  0  0  0  0  0  0  0  0
    0.6895   -3.7566  158.8225 C   0  0  0  0  0  0  0  0  0  0  0  0
    0.9751   -2.6204  158.1190 N   0  0  0  0  0  0  0  0  0  0  0  0
   -0.0424   -2.4645  157.2963 C   0  0  0  0  0  0  0  0  0  0  0  0
    3.9160   -0.1821  141.3278 H   0  0  0  0  0  0  0  0  0  0  0  0
    6.4526   -1.7464  137.5690 H   0  0  0  0  0  0  0  0  0  0  0  0
    5.0540    1.9670  141.3092 H   0  0  0  0  0  0  0  0  0  0  0  0
    5.3583    2.4921  139.6487 H   0  0  0  0  0  0  0  0  0  0  0  0
    6.6955    1.8970  140.6532 H   0  0  0  0  0  0  0  0  0  0  0  0
   -0.4577   -2.2157  142.8946 H   0  0  0  0  0  0  0  0  0  0  0  0
   -0.1158   -0.8519  141.7899 H   0  0  0  0  0  0  0  0  0  0  0  0
    0.5023   -3.1261  140.8635 H   0  0  0  0  0  0  0  0  0  0  0  0
    2.9820   -3.3596  139.7909 H   0  0  0  0  0  0  0  0  0  0  0  0
    3.9441   -2.4523  142.5462 H   0  0  0  0  0  0  0  0  0  0  0  0
    4.1431   -4.0504  141.7954 H   0  0  0  0  0  0  0  0  0  0  0  0
    1.9813   -3.4291  143.4172 H   0  0  0  0  0  0  0  0  0  0  0  0
    0.9605   -5.0582  142.4654 H   0  0  0  0  0  0  0  0  0  0  0  0
   -1.9898   -3.8090  153.0887 H   0  0  0  0  0  0  0  0  0  0  0  0
   -3.1808   -2.5085  152.8515 H   0  0  0  0  0  0  0  0  0  0  0  0
   -4.0331   -4.2103  154.4532 H   0  0  0  0  0  0  0  0  0  0  0  0
   -3.0377   -3.8459  157.6956 H   0  0  0  0  0  0  0  0  0  0  0  0
   -2.2257   -1.2876  156.1982 H   0  0  0  0  0  0  0  0  0  0  0  0
   -4.2621   -1.8718  158.0906 H   0  0  0  0  0  0  0  0  0  0  0  0
   -4.3464   -1.5141  154.9591 H   0  0  0  0  0  0  0  0  0  0  0  0
   -5.6125   -2.1107  156.6359 H   0  0  0  0  0  0  0  0  0  0  0  0
   -0.6695   -6.8762  160.3522 H   0  0  0  0  0  0  0  0  0  0  0  0
    3.0582   -3.2495  159.6800 H   0  0  0  0  0  0  0  0  0  0  0  0
    3.2513   -4.6535  160.6985 H   0  0  0  0  0  0  0  0  0  0  0  0
   -0.1178   -1.7031  156.5287 H   0  0  0  0  0  0  0  0  0  0  0  0
  1 13  1  0  0  0  0
  1  3  1  0  0  0  0
  1  2  1  0  0  0  0
  2  8  2  0  0  0  0
  2 56  1  0  0  0  0
  3  5  1  0  0  0  0
  3  4  2  0  0  0  0
  5  6  1  0  0  0  0
  5 57  1  0  0  0  0
  6  8  1  0  0  0  0
  6  7  2  0  0  0  0
  8  9  1  0  0  0  0
  9 58  1  0  0  0  0
  9 59  1  0  0  0  0
  9 60  1  0  0  0  0
 10 11  1  0  0  0  0
 10 20  1  0  0  0  0
 10 61  1  0  0  0  0
 10 62  1  0  0  0  0
 11 12  1  0  0  0  0
 11 15  1  0  0  0  0
 11 63  1  6  0  0  0
 12 13  1  0  0  0  0
 13 14  1  0  0  0  0
 13 64  1  6  0  0  0
 14 15  1  0  0  0  0
 14 65  1  0  0  0  0
 14 66  1  0  0  0  0
 15 16  1  0  0  0  0
 15 67  1  1  0  0  0
 16 68  1  0  0  0  0
 17 20  1  6  0  0  0
 17 21  1  0  0  0  0
 17 19  2  0  0  0  0
 17 18  1  0  0  0  0
 22 21  1  6  0  0  0
 22 25  1  0  0  0  0
 22 24  2  0  0  0  0
 22 23  1  0  0  0  0
 26 25  1  6  0  0  0
 26 29  1  0  0  0  0
 26 28  2  0  0  0  0
 26 27  1  0  0  0  0
 30 29  1  6  0  0  0
 30 33  1  0  0  0  0
 30 32  2  0  0  0  0
 30 31  1  0  0  0  0
 34 33  1  6  0  0  0
 34 37  1  0  0  0  0
 34 36  2  0  0  0  0
 34 35  1  0  0  0  0
 37 38  1  0  0  0  0
 38 39  1  0  0  0  0
 38 69  1  0  0  0  0
 38 70  1  0  0  0  0
 39 44  1  0  0  0  0
 39 40  1  0  0  0  0
 39 71  1  6  0  0  0
 40 41  1  0  0  0  0
 41 46  1  0  0  0  0
 41 42  1  0  0  0  0
 41 72  1  1  0  0  0
 42 44  1  0  0  0  0
 42 43  1  0  0  0  0
 42 73  1  6  0  0  0
 43 74  1  0  0  0  0
 44 45  1  0  0  0  0
 44 75  1  6  0  0  0
 45 76  1  0  0  0  0
 46 55  2  0  0  0  0
 46 47  1  0  0  0  0
 47 53  2  0  0  0  0
 47 48  1  0  0  0  0
 48 49  2  0  0  0  0
 49 50  1  0  0  0  0
 49 77  1  0  0  0  0
 50 51  2  0  0  0  0
 51 53  1  0  0  0  0
 51 52  1  0  0  0  0
 52 78  1  0  0  0  0
 52 79  1  0  0  0  0
 53 54  1  0  0  0  0
 54 55  1  0  0  0  0
 55 80  1  0  0  0  0
M  CHG  3   1   1   5   1  46   1
M  END
$$$$
