T74
 OpenBabel04091911463D

 77 81  0  0  0  0  0  0  0  0999 V2000
   23.8233    4.7319   25.0487 C   0  0  0  0  0  0  0  0  0  0  0  0
   22.7938    4.7152   24.0713 O   0  0  0  0  0  0  0  0  0  0  0  0
   21.9074    5.8457   24.0413 C   0  0  0  0  0  0  0  0  0  0  0  0
   20.7130    5.4137   23.1754 C   0  0  0  0  0  0  0  0  0  0  0  0
   21.3598    6.2016   25.4360 C   0  0  0  0  0  0  0  0  0  0  0  0
   22.5919    7.0935   23.4471 C   0  0  0  0  0  0  0  0  0  0  0  0
   23.2509    6.9174   22.0794 C   0  0  0  0  0  0  0  0  0  0  0  0
   23.8082    8.1840   21.6299 N   0  3  0  0  0  0  0  0  0  0  0  0
   25.0004    8.7542   21.9834 C   0  0  0  0  0  0  0  0  0  0  0  0
   24.9854   10.0286   21.4670 C   0  0  0  0  0  0  0  0  0  0  0  0
   23.7515   10.1295   20.7910 C   0  0  0  0  0  0  0  0  0  0  0  0
   23.3614   11.2430   20.1424 N   0  0  0  0  0  0  0  0  0  0  0  0
   22.1825   11.3356   19.3754 C   0  0  0  0  0  0  0  0  0  0  0  0
   21.0021   11.8132   19.9813 C   0  0  0  0  0  0  0  0  0  0  0  0
   20.9619   12.1648   21.4446 C   0  0  0  0  0  0  0  0  0  0  0  0
   19.8368   11.9169   19.2154 C   0  0  0  0  0  0  0  0  0  0  0  0
   19.8476   11.5798   17.8638 C   0  0  0  0  0  0  0  0  0  0  0  0
   21.0230   11.1419   17.2600 C   0  0  0  0  0  0  0  0  0  0  0  0
   22.2045   11.0228   18.0024 C   0  0  0  0  0  0  0  0  0  0  0  0
   23.4308   10.5089   17.2940 C   0  0  0  0  0  0  0  0  0  0  0  0
   23.0370    9.0017   20.8941 N   0  0  0  0  0  0  0  0  0  0  0  0
   26.0953   10.8163   21.7307 C   0  0  0  0  0  0  0  0  0  0  0  0
   27.1035   10.3120   22.4823 N   0  0  0  0  0  0  0  0  0  0  0  0
   25.9812    8.2142   22.7096 N   0  0  0  0  0  0  0  0  0  0  0  0
   27.0168    9.0436   22.9332 C   0  0  0  0  0  0  0  0  0  0  0  0
   28.1198    8.5994   23.6482 N   0  0  0  0  0  0  0  0  0  0  0  0
   28.4625    7.3119   24.0670 C   0  0  0  0  0  0  0  0  0  0  0  0
   29.7967    6.9851   24.2865 C   0  0  0  0  0  0  0  0  0  0  0  0
   30.1672    5.6764   24.6228 C   0  0  0  0  0  0  0  0  0  0  0  0
   29.2248    4.6420   24.7484 C   0  0  0  0  0  0  0  0  0  0  0  0
   27.8907    4.9977   24.5390 C   0  0  0  0  0  0  0  0  0  0  0  0
   27.5247    6.2932   24.1924 C   0  0  0  0  0  0  0  0  0  0  0  0
   29.5602    3.3314   25.1196 N   0  0  0  0  0  0  0  0  0  0  0  0
   30.9846    3.0442   25.3674 C   0  0  0  0  0  0  0  0  0  0  0  0
   31.1495    1.7147   26.1175 C   0  0  0  0  0  0  0  0  0  0  0  0
   30.4157    0.6046   25.4150 N   0  3  0  0  0  0  0  0  0  0  0  0
   28.9629    0.9218   25.1832 C   0  0  0  0  0  0  0  0  0  0  0  0
   28.8056    2.2545   24.4354 C   0  0  0  0  0  0  0  0  0  0  0  0
   24.4293    3.8306   24.9150 H   0  0  0  0  0  0  0  0  0  0  0  0
   23.4133    4.6966   26.0616 H   0  0  0  0  0  0  0  0  0  0  0  0
   24.4714    5.6014   24.9292 H   0  0  0  0  0  0  0  0  0  0  0  0
   19.9755    6.2173   23.0768 H   0  0  0  0  0  0  0  0  0  0  0  0
   20.2117    4.5447   23.6197 H   0  0  0  0  0  0  0  0  0  0  0  0
   21.0266    5.1003   22.1747 H   0  0  0  0  0  0  0  0  0  0  0  0
   20.6300    7.0169   25.3769 H   0  0  0  0  0  0  0  0  0  0  0  0
   22.1568    6.5314   26.1113 H   0  0  0  0  0  0  0  0  0  0  0  0
   20.8784    5.3362   25.9035 H   0  0  0  0  0  0  0  0  0  0  0  0
   23.3588    7.4496   24.1468 H   0  0  0  0  0  0  0  0  0  0  0  0
   21.8508    7.9022   23.3802 H   0  0  0  0  0  0  0  0  0  0  0  0
   22.5199    6.6099   21.3199 H   0  0  0  0  0  0  0  0  0  0  0  0
   24.0562    6.1747   22.0896 H   0  0  0  0  0  0  0  0  0  0  0  0
   23.9095   12.0932   20.1324 H   0  0  0  0  0  0  0  0  0  0  0  0
   19.9644   12.4997   21.7478 H   0  0  0  0  0  0  0  0  0  0  0  0
   21.6632   12.9772   21.6620 H   0  0  0  0  0  0  0  0  0  0  0  0
   21.2126   11.2939   22.0593 H   0  0  0  0  0  0  0  0  0  0  0  0
   18.9081   12.2498   19.6717 H   0  0  0  0  0  0  0  0  0  0  0  0
   18.9331   11.6525   17.2816 H   0  0  0  0  0  0  0  0  0  0  0  0
   21.0131   10.8786   16.2050 H   0  0  0  0  0  0  0  0  0  0  0  0
   24.3115   10.4477   17.9395 H   0  0  0  0  0  0  0  0  0  0  0  0
   23.6853   11.1727   16.4614 H   0  0  0  0  0  0  0  0  0  0  0  0
   23.2413    9.5032   16.9035 H   0  0  0  0  0  0  0  0  0  0  0  0
   26.2151   11.8307   21.3725 H   0  0  0  0  0  0  0  0  0  0  0  0
   28.8032    9.3367   23.7427 H   0  0  0  0  0  0  0  0  0  0  0  0
   30.5729    7.7380   24.1719 H   0  0  0  0  0  0  0  0  0  0  0  0
   31.2299    5.5088   24.7591 H   0  0  0  0  0  0  0  0  0  0  0  0
   27.0741    4.2953   24.6555 H   0  0  0  0  0  0  0  0  0  0  0  0
   26.4679    6.4797   24.0383 H   0  0  0  0  0  0  0  0  0  0  0  0
   31.4418    3.8114   26.0030 H   0  0  0  0  0  0  0  0  0  0  0  0
   31.5275    3.0098   24.4141 H   0  0  0  0  0  0  0  0  0  0  0  0
   30.7398    1.7796   27.1311 H   0  0  0  0  0  0  0  0  0  0  0  0
   32.2018    1.4208   26.1655 H   0  0  0  0  0  0  0  0  0  0  0  0
   30.8676    0.4172   24.5117 H   0  0  0  0  0  0  0  0  0  0  0  0
   28.4815    0.9581   26.1667 H   0  0  0  0  0  0  0  0  0  0  0  0
   28.5451    0.0941   24.6025 H   0  0  0  0  0  0  0  0  0  0  0  0
   29.1640    2.1573   23.4030 H   0  0  0  0  0  0  0  0  0  0  0  0
   27.7295    2.4419   24.3902 H   0  0  0  0  0  0  0  0  0  0  0  0
   30.4879   -0.2540   25.9734 H   0  0  0  0  0  0  0  0  0  0  0  0
  1  2  1  0  0  0  0
  1 39  1  0  0  0  0
  1 40  1  0  0  0  0
  1 41  1  0  0  0  0
  2  3  1  0  0  0  0
  3  4  1  0  0  0  0
  3  5  1  0  0  0  0
  3  6  1  0  0  0  0
  4 42  1  0  0  0  0
  4 43  1  0  0  0  0
  4 44  1  0  0  0  0
  5 45  1  0  0  0  0
  5 46  1  0  0  0  0
  5 47  1  0  0  0  0
  6  7  1  0  0  0  0
  6 48  1  0  0  0  0
  6 49  1  0  0  0  0
  7  8  1  0  0  0  0
  7 50  1  0  0  0  0
  7 51  1  0  0  0  0
  8  9  2  0  0  0  0
  8 21  1  0  0  0  0
  9 10  1  0  0  0  0
  9 24  1  0  0  0  0
 10 11  2  0  0  0  0
 10 22  1  0  0  0  0
 11 12  1  0  0  0  0
 11 21  1  0  0  0  0
 12 13  1  0  0  0  0
 12 52  1  0  0  0  0
 13 14  2  0  0  0  0
 13 19  1  0  0  0  0
 14 15  1  0  0  0  0
 14 16  1  0  0  0  0
 15 53  1  0  0  0  0
 15 54  1  0  0  0  0
 15 55  1  0  0  0  0
 16 17  2  0  0  0  0
 16 56  1  0  0  0  0
 17 18  1  0  0  0  0
 17 57  1  0  0  0  0
 18 19  2  0  0  0  0
 18 58  1  0  0  0  0
 19 20  1  0  0  0  0
 20 59  1  0  0  0  0
 20 60  1  0  0  0  0
 20 61  1  0  0  0  0
 22 23  2  0  0  0  0
 22 62  1  0  0  0  0
 23 25  1  0  0  0  0
 24 25  2  0  0  0  0
 25 26  1  0  0  0  0
 26 27  1  0  0  0  0
 26 63  1  0  0  0  0
 27 28  2  0  0  0  0
 27 32  1  0  0  0  0
 28 29  1  0  0  0  0
 28 64  1  0  0  0  0
 29 30  2  0  0  0  0
 29 65  1  0  0  0  0
 30 31  1  0  0  0  0
 30 33  1  0  0  0  0
 31 32  2  0  0  0  0
 31 66  1  0  0  0  0
 32 67  1  0  0  0  0
 33 34  1  0  0  0  0
 33 38  1  0  0  0  0
 34 35  1  0  0  0  0
 34 68  1  0  0  0  0
 34 69  1  0  0  0  0
 35 36  1  0  0  0  0
 35 70  1  0  0  0  0
 35 71  1  0  0  0  0
 36 37  1  0  0  0  0
 36 72  1  0  0  0  0
 36 77  1  0  0  0  0
 37 38  1  0  0  0  0
 37 73  1  0  0  0  0
 37 74  1  0  0  0  0
 38 75  1  0  0  0  0
 38 76  1  0  0  0  0
M  CHG  2   8   1  36   1
M  END
$$$$
