TCG
 OpenBabel04091916273D

116119  0  0  1  0  0  0  0  0999 V2000
  -30.2175   72.2994   44.8728 O   0  0  0  0  0  0  0  0  0  0  0  0
  -30.6922   71.3862   44.2053 C   0  0  0  0  0  0  0  0  0  0  0  0
  -29.8086   70.3511   43.5765 C   0  0  0  0  0  0  0  0  0  0  0  0
  -32.0387   71.1985   44.0094 N   0  0  0  0  0  0  0  0  0  0  0  0
  -33.0291   72.1676   44.5224 C   0  0  2  0  0  0  0  0  0  0  0  0
  -34.2081   71.4323   45.1820 C   0  0  1  0  0  0  0  0  0  0  0  0
  -34.7582   72.1156   46.3076 O   0  0  0  0  0  0  0  0  0  0  0  0
  -35.3276   71.1407   44.1738 C   0  0  1  0  0  0  0  0  0  0  0  0
  -35.7928   72.4157   43.4428 C   0  0  1  0  0  0  0  0  0  0  0  0
  -37.1911   72.7947   43.9442 C   0  0  0  0  0  0  0  0  0  0  0  0
  -37.6325   74.0202   43.3767 O   0  0  0  0  0  0  0  0  0  0  0  0
  -34.8833   73.5115   43.6728 O   0  0  0  0  0  0  0  0  0  0  0  0
  -33.5354   73.1149   43.4048 C   0  0  1  0  0  0  0  0  0  0  0  0
  -32.7288   74.2783   43.3865 O   0  0  0  0  0  0  0  0  0  0  0  0
  -34.8659   70.2491   43.1702 O   0  0  0  0  0  0  0  0  0  0  0  0
  -34.5612   68.9525   43.6521 C   0  0  2  0  0  0  0  0  0  0  0  0
  -33.4061   68.6055   42.9123 O   0  0  0  0  0  0  0  0  0  0  0  0
  -32.9803   67.2688   43.1125 C   0  0  2  0  0  0  0  0  0  0  0  0
  -31.7863   67.0536   42.1703 C   0  0  0  0  0  0  0  0  0  0  0  0
  -32.1014   67.5237   40.8585 O   0  0  0  0  0  0  0  0  0  0  0  0
  -34.1092   66.2828   42.7984 C   0  0  2  0  0  0  0  0  0  0  0  0
  -35.3725   66.5821   43.5959 C   0  0  2  0  0  0  0  0  0  0  0  0
  -36.4770   65.7833   43.1518 O   0  0  0  0  0  0  0  0  0  0  0  0
  -35.7850   68.0384   43.5126 C   0  0  1  0  0  0  0  0  0  0  0  0
  -36.7382   68.2893   44.6192 N   0  0  0  0  0  0  0  0  0  0  0  0
  -38.0018   68.7982   44.3972 C   0  0  0  0  0  0  0  0  0  0  0  0
  -38.8150   68.9393   45.6451 C   0  0  0  0  0  0  0  0  0  0  0  0
  -38.3975   69.1509   43.3106 O   0  0  0  0  0  0  0  0  0  0  0  0
  -33.6582   65.0194   43.2683 O   0  0  0  0  0  0  0  0  0  0  0  0
  -33.8546   63.9677   42.3486 C   0  0  2  0  0  0  0  0  0  0  0  0
  -35.2107   63.5446   42.4020 O   0  0  0  0  0  0  0  0  0  0  0  0
  -35.4811   62.4728   41.4842 C   0  0  2  0  0  0  0  0  0  0  0  0
  -36.9894   62.2023   41.5471 C   0  0  0  0  0  0  0  0  0  0  0  0
  -37.6973   63.2878   40.9654 O   0  0  0  0  0  0  0  0  0  0  0  0
  -34.6436   61.2446   41.8792 C   0  0  2  0  0  0  0  0  0  0  0  0
  -33.1659   61.6331   41.9737 C   0  0  2  0  0  0  0  0  0  0  0  0
  -32.4342   60.5380   42.5344 O   0  0  0  0  0  0  0  0  0  0  0  0
  -32.9234   62.8537   42.8243 C   0  0  1  0  0  0  0  0  0  0  0  0
  -31.5127   63.2502   42.7093 N   0  0  0  0  0  0  0  0  0  0  0  0
  -30.7232   63.7824   43.6817 C   0  0  0  0  0  0  0  0  0  0  0  0
  -31.2408   63.7806   45.0904 C   0  0  0  0  0  0  0  0  0  0  0  0
  -29.6308   64.2506   43.3748 O   0  0  0  0  0  0  0  0  0  0  0  0
  -34.6341   60.2227   40.8790 O   0  0  0  0  0  0  0  0  0  0  0  0
  -35.5717   59.1736   41.0433 C   0  0  1  0  0  0  0  0  0  0  0  0
  -35.3295   58.1915   39.8671 C   0  0  2  0  0  0  0  0  0  0  0  0
  -36.6627   57.5838   39.2960 N   0  3  0  0  0  0  0  0  0  0  0  0
  -36.3552   56.6357   38.1397 C   0  0  0  0  0  0  0  0  0  0  0  0
  -37.4526   56.8441   40.3736 C   0  0  0  0  0  0  0  0  0  0  0  0
  -37.5336   58.7115   38.7196 C   0  0  0  0  0  0  0  0  0  0  0  0
  -34.2808   57.1084   40.2143 C   0  0  1  0  0  0  0  0  0  0  0  0
  -33.2946   57.0716   39.1709 O   0  0  0  0  0  0  0  0  0  0  0  0
  -33.5776   57.3952   41.5422 C   0  0  2  0  0  0  0  0  0  0  0  0
  -32.7086   56.3143   41.8622 O   0  0  0  0  0  0  0  0  0  0  0  0
  -34.6471   57.5692   42.6179 C   0  0  2  0  0  0  0  0  0  0  0  0
  -35.5845   58.6041   42.3295 O   0  0  0  0  0  0  0  0  0  0  0  0
  -34.0391   57.8092   44.0032 C   0  0  0  0  0  0  0  0  0  0  0  0
  -35.0779   57.9678   44.9631 O   0  0  0  0  0  0  0  0  0  0  0  0
  -30.3856   69.6150   43.0176 H   0  0  0  0  0  0  0  0  0  0  0  0
  -29.2543   69.8399   44.3670 H   0  0  0  0  0  0  0  0  0  0  0  0
  -29.1129   70.8441   42.8911 H   0  0  0  0  0  0  0  0  0  0  0  0
  -32.3571   70.4715   43.3737 H   0  0  0  0  0  0  0  0  0  0  0  0
  -32.5396   72.7649   45.2962 H   0  0  0  0  0  0  0  0  0  0  0  0
  -33.8026   70.5145   45.6117 H   0  0  0  0  0  0  0  0  0  0  0  0
  -34.9416   73.0327   46.0335 H   0  0  0  0  0  0  0  0  0  0  0  0
  -36.1805   70.7010   44.6920 H   0  0  0  0  0  0  0  0  0  0  0  0
  -35.8474   72.2684   42.3548 H   0  0  0  0  0  0  0  0  0  0  0  0
  -37.2013   72.9047   45.0328 H   0  0  0  0  0  0  0  0  0  0  0  0
  -37.9102   72.0149   43.6705 H   0  0  0  0  0  0  0  0  0  0  0  0
  -36.9588   74.6861   43.6074 H   0  0  0  0  0  0  0  0  0  0  0  0
  -33.4685   72.6409   42.4152 H   0  0  0  0  0  0  0  0  0  0  0  0
  -33.0247   74.8007   42.6254 H   0  0  0  0  0  0  0  0  0  0  0  0
  -34.2773   68.9410   44.7063 H   0  0  0  0  0  0  0  0  0  0  0  0
  -32.6283   67.1350   44.1454 H   0  0  0  0  0  0  0  0  0  0  0  0
  -31.5091   66.0036   42.0916 H   0  0  0  0  0  0  0  0  0  0  0  0
  -30.9101   67.6055   42.5179 H   0  0  0  0  0  0  0  0  0  0  0  0
  -32.3342   68.4683   40.9621 H   0  0  0  0  0  0  0  0  0  0  0  0
  -34.3321   66.2793   41.7237 H   0  0  0  0  0  0  0  0  0  0  0  0
  -35.2053   66.2989   44.6430 H   0  0  0  0  0  0  0  0  0  0  0  0
  -36.1723   64.8563   43.0993 H   0  0  0  0  0  0  0  0  0  0  0  0
  -36.2808   68.2330   42.5551 H   0  0  0  0  0  0  0  0  0  0  0  0
  -36.4910   68.0075   45.5575 H   0  0  0  0  0  0  0  0  0  0  0  0
  -39.7907   69.3570   45.3708 H   0  0  0  0  0  0  0  0  0  0  0  0
  -38.3088   69.6276   46.3218 H   0  0  0  0  0  0  0  0  0  0  0  0
  -38.9576   67.9673   46.1252 H   0  0  0  0  0  0  0  0  0  0  0  0
  -33.5889   64.2903   41.3333 H   0  0  0  0  0  0  0  0  0  0  0  0
  -35.2341   62.8053   40.4667 H   0  0  0  0  0  0  0  0  0  0  0  0
  -37.3208   62.0671   42.5822 H   0  0  0  0  0  0  0  0  0  0  0  0
  -37.2741   61.3389   40.9568 H   0  0  0  0  0  0  0  0  0  0  0  0
  -38.6486   63.1455   41.1180 H   0  0  0  0  0  0  0  0  0  0  0  0
  -34.9654   60.8522   42.8515 H   0  0  0  0  0  0  0  0  0  0  0  0
  -32.7643   61.8069   40.9647 H   0  0  0  0  0  0  0  0  0  0  0  0
  -32.2846   59.9299   41.7963 H   0  0  0  0  0  0  0  0  0  0  0  0
  -33.1444   62.6124   43.8716 H   0  0  0  0  0  0  0  0  0  0  0  0
  -31.1065   63.3385   41.7845 H   0  0  0  0  0  0  0  0  0  0  0  0
  -30.4630   64.1521   45.7608 H   0  0  0  0  0  0  0  0  0  0  0  0
  -31.5073   62.7653   45.3956 H   0  0  0  0  0  0  0  0  0  0  0  0
  -32.1093   64.4368   45.1733 H   0  0  0  0  0  0  0  0  0  0  0  0
  -36.5505   59.6123   40.9415 H   0  0  0  0  0  0  0  0  0  0  0  0
  -34.9397   58.7766   39.0205 H   0  0  0  0  0  0  0  0  0  0  0  0
  -37.2992   56.2422   37.7583 H   0  0  0  0  0  0  0  0  0  0  0  0
  -35.7401   55.8101   38.5003 H   0  0  0  0  0  0  0  0  0  0  0  0
  -35.8235   57.2025   37.3695 H   0  0  0  0  0  0  0  0  0  0  0  0
  -37.6750   57.5333   41.1907 H   0  0  0  0  0  0  0  0  0  0  0  0
  -36.8599   55.9993   40.7293 H   0  0  0  0  0  0  0  0  0  0  0  0
  -38.3832   56.4919   39.9227 H   0  0  0  0  0  0  0  0  0  0  0  0
  -36.9350   59.2712   37.9945 H   0  0  0  0  0  0  0  0  0  0  0  0
  -37.8694   59.3659   39.5249 H   0  0  0  0  0  0  0  0  0  0  0  0
  -38.4066   58.2587   38.2452 H   0  0  0  0  0  0  0  0  0  0  0  0
  -34.7093   56.1053   40.2899 H   0  0  0  0  0  0  0  0  0  0  0  0
  -33.6703   56.7157   38.3509 H   0  0  0  0  0  0  0  0  0  0  0  0
  -32.9641   58.2809   41.4093 H   0  0  0  0  0  0  0  0  0  0  0  0
  -32.1245   56.5862   42.5943 H   0  0  0  0  0  0  0  0  0  0  0  0
  -35.2412   56.6485   42.6854 H   0  0  0  0  0  0  0  0  0  0  0  0
  -33.4260   58.7129   44.0079 H   0  0  0  0  0  0  0  0  0  0  0  0
  -33.4268   56.9560   44.3089 H   0  0  0  0  0  0  0  0  0  0  0  0
  -34.6489   58.1415   45.8203 H   0  0  0  0  0  0  0  0  0  0  0  0
  1  2  2  0  0  0  0
  2  3  1  0  0  0  0
  2  4  1  0  0  0  0
  3 58  1  0  0  0  0
  3 59  1  0  0  0  0
  3 60  1  0  0  0  0
  4  5  1  0  0  0  0
  4 61  1  0  0  0  0
  5  6  1  0  0  0  0
  5 13  1  0  0  0  0
  5 62  1  1  0  0  0
  6  7  1  0  0  0  0
  6  8  1  0  0  0  0
  6 63  1  1  0  0  0
  7 64  1  0  0  0  0
  8  9  1  0  0  0  0
  8 15  1  0  0  0  0
  8 65  1  1  0  0  0
  9 10  1  0  0  0  0
  9 12  1  0  0  0  0
  9 66  1  6  0  0  0
 10 11  1  0  0  0  0
 10 67  1  0  0  0  0
 10 68  1  0  0  0  0
 11 69  1  0  0  0  0
 12 13  1  0  0  0  0
 13 14  1  0  0  0  0
 13 70  1  6  0  0  0
 14 71  1  0  0  0  0
 15 16  1  0  0  0  0
 16 17  1  0  0  0  0
 16 24  1  0  0  0  0
 16 72  1  1  0  0  0
 17 18  1  0  0  0  0
 18 19  1  0  0  0  0
 18 21  1  0  0  0  0
 18 73  1  1  0  0  0
 19 20  1  0  0  0  0
 19 74  1  0  0  0  0
 19 75  1  0  0  0  0
 20 76  1  0  0  0  0
 21 22  1  0  0  0  0
 21 29  1  0  0  0  0
 21 77  1  6  0  0  0
 22 23  1  0  0  0  0
 22 24  1  0  0  0  0
 22 78  1  1  0  0  0
 23 79  1  0  0  0  0
 24 25  1  0  0  0  0
 24 80  1  6  0  0  0
 25 26  1  0  0  0  0
 25 81  1  0  0  0  0
 26 27  1  0  0  0  0
 26 28  2  0  0  0  0
 27 82  1  0  0  0  0
 27 83  1  0  0  0  0
 27 84  1  0  0  0  0
 29 30  1  0  0  0  0
 30 31  1  0  0  0  0
 30 38  1  0  0  0  0
 30 85  1  6  0  0  0
 31 32  1  0  0  0  0
 32 33  1  0  0  0  0
 32 35  1  0  0  0  0
 32 86  1  6  0  0  0
 33 34  1  0  0  0  0
 33 87  1  0  0  0  0
 33 88  1  0  0  0  0
 34 89  1  0  0  0  0
 35 36  1  0  0  0  0
 35 43  1  0  0  0  0
 35 90  1  1  0  0  0
 36 37  1  0  0  0  0
 36 38  1  0  0  0  0
 36 91  1  6  0  0  0
 37 92  1  0  0  0  0
 38 39  1  0  0  0  0
 38 93  1  1  0  0  0
 39 40  1  0  0  0  0
 39 94  1  0  0  0  0
 40 41  1  0  0  0  0
 40 42  2  0  0  0  0
 41 95  1  0  0  0  0
 41 96  1  0  0  0  0
 41 97  1  0  0  0  0
 43 44  1  0  0  0  0
 44 45  1  0  0  0  0
 44 55  1  0  0  0  0
 44 98  1  6  0  0  0
 45 46  1  0  0  0  0
 45 50  1  0  0  0  0
 45 99  1  6  0  0  0
 46 47  1  0  0  0  0
 46 48  1  0  0  0  0
 46 49  1  0  0  0  0
 47100  1  0  0  0  0
 47101  1  0  0  0  0
 47102  1  0  0  0  0
 48103  1  0  0  0  0
 48104  1  0  0  0  0
 48105  1  0  0  0  0
 49106  1  0  0  0  0
 49107  1  0  0  0  0
 49108  1  0  0  0  0
 50 51  1  0  0  0  0
 50 52  1  0  0  0  0
 50109  1  1  0  0  0
 51110  1  0  0  0  0
 52 53  1  0  0  0  0
 52 54  1  0  0  0  0
 52111  1  6  0  0  0
 53112  1  0  0  0  0
 54 55  1  0  0  0  0
 54 56  1  0  0  0  0
 54113  1  1  0  0  0
 56 57  1  0  0  0  0
 56114  1  0  0  0  0
 56115  1  0  0  0  0
 57116  1  0  0  0  0
M  CHG  1  46   1
M  END
$$$$
