TDP
 OpenBabel04091913393D

 16 15  0  0  0  0  0  0  0  0999 V2000
   19.7499  -65.0786    0.8859 C   0  0  0  0  0  0  0  0  0  0  0  0
   18.4901  -64.2265    0.9254 C   0  0  0  0  0  0  0  0  0  0  0  0
   17.6461  -64.6837    1.9665 O   0  0  0  0  0  0  0  0  0  0  0  0
   16.1674  -63.9803    2.0869 P   0  0  1  0  0  0  0  0  0  0  0  0
   15.4510  -64.4808    0.7443 O   0  0  0  0  0  0  0  0  0  0  0  0
   15.5214  -64.4355    3.3903 O   0  0  0  0  0  0  0  0  0  0  0  0
   16.4258  -62.4815    1.9977 O   0  0  0  0  0  0  0  0  0  0  0  0
   14.7657  -65.9044    0.3266 P   0  0  0  0  0  0  0  0  0  0  0  0
   13.4496  -65.5116   -0.3135 O   0  0  0  0  0  0  0  0  0  0  0  0
   15.7181  -66.5426   -0.7002 O   0  0  0  0  0  0  0  0  0  0  0  0
   14.6144  -66.7368    1.5832 O   0  0  0  0  0  0  0  0  0  0  0  0
   20.4368  -64.7311    0.1086 H   0  0  0  0  0  0  0  0  0  0  0  0
   19.5051  -66.1275    0.6887 H   0  0  0  0  0  0  0  0  0  0  0  0
   20.2754  -65.0486    1.8472 H   0  0  0  0  0  0  0  0  0  0  0  0
   17.9855  -64.2732   -0.0456 H   0  0  0  0  0  0  0  0  0  0  0  0
   18.7793  -63.1890    1.1212 H   0  0  0  0  0  0  0  0  0  0  0  0
  1  2  1  0  0  0  0
  1 12  1  0  0  0  0
  1 13  1  0  0  0  0
  1 14  1  0  0  0  0
  2  3  1  0  0  0  0
  2 15  1  0  0  0  0
  2 16  1  0  0  0  0
  4  3  1  6  0  0  0
  4  5  1  0  0  0  0
  4  6  2  0  0  0  0
  4  7  1  0  0  0  0
  5  8  1  0  0  0  0
  8  9  2  0  0  0  0
  8 10  1  0  0  0  0
  8 11  1  0  0  0  0
M  END
$$$$
