TE1
 OpenBabel04091912263D

 41 41  0  0  1  0  0  0  0  0999 V2000
   -2.7075    3.5278   10.9222 C   0  0  0  0  0  0  0  0  0  0  0  0
   -4.1457    3.5226   10.3881 C   0  0  0  0  0  0  0  0  0  0  0  0
   -4.6683    2.0795   10.4263 C   0  0  0  0  0  0  0  0  0  0  0  0
   -5.0546    4.4979   11.1870 C   0  0  0  0  0  0  0  0  0  0  0  0
   -6.2323    5.1961   10.4398 C   0  0  2  0  0  0  0  0  0  0  0  0
   -6.3138    4.8575    9.0610 O   0  0  0  0  0  0  0  0  0  0  0  0
   -6.2723    6.7291   10.5609 C   0  0  0  0  0  0  0  0  0  0  0  0
   -6.0827    7.5000    9.3931 C   0  0  0  0  0  0  0  0  0  0  0  0
   -6.5815    7.4274   11.7404 C   0  0  0  0  0  0  0  0  0  0  0  0
   -6.7884    6.6957   12.8845 O   0  0  0  0  0  0  0  0  0  0  0  0
   -7.5664    7.3586   13.8795 C   0  0  0  0  0  0  0  0  0  0  0  0
   -6.6672    8.8293   11.7080 C   0  0  0  0  0  0  0  0  0  0  0  0
   -6.4621    9.5378   10.5264 C   0  0  0  0  0  0  0  0  0  0  0  0
   -6.6009   10.8991   10.6049 O   0  0  0  0  0  0  0  0  0  0  0  0
   -6.1604    8.8771    9.3335 C   0  0  0  0  0  0  0  0  0  0  0  0
   -6.0119    9.6414    8.0526 C   0  0  0  0  0  0  0  0  0  0  0  0
   -5.4253    9.1494    6.7272 C   0  0  0  0  0  0  0  0  0  0  0  0
   -5.1147    7.8402    5.9857 C   0  0  0  0  0  0  0  0  0  0  0  0
   -4.8976    6.8140    6.6514 O   0  0  0  0  0  0  0  0  0  0  0  0
   -5.0503    7.9816    4.7238 O   0  0  0  0  0  0  0  0  0  0  0  0
   -2.0788    2.8409   10.3436 H   0  0  0  0  0  0  0  0  0  0  0  0
   -2.6619    3.2213   11.9723 H   0  0  0  0  0  0  0  0  0  0  0  0
   -2.2669    4.5261   10.8327 H   0  0  0  0  0  0  0  0  0  0  0  0
   -4.0721    3.8411    9.3434 H   0  0  0  0  0  0  0  0  0  0  0  0
   -5.6979    2.0102   10.0660 H   0  0  0  0  0  0  0  0  0  0  0  0
   -4.6333    1.6682   11.4425 H   0  0  0  0  0  0  0  0  0  0  0  0
   -4.0494    1.4295    9.7946 H   0  0  0  0  0  0  0  0  0  0  0  0
   -4.4324    5.2610   11.6700 H   0  0  0  0  0  0  0  0  0  0  0  0
   -5.4978    3.9458   12.0250 H   0  0  0  0  0  0  0  0  0  0  0  0
   -7.1757    4.8146   10.8505 H   0  0  0  0  0  0  0  0  0  0  0  0
   -6.0179    3.9518    8.9019 H   0  0  0  0  0  0  0  0  0  0  0  0
   -5.9296    6.9562    8.4676 H   0  0  0  0  0  0  0  0  0  0  0  0
   -7.6529    6.6931   14.7424 H   0  0  0  0  0  0  0  0  0  0  0  0
   -8.5735    7.5645   13.5007 H   0  0  0  0  0  0  0  0  0  0  0  0
   -7.0884    8.2740   14.2427 H   0  0  0  0  0  0  0  0  0  0  0  0
   -6.9128    9.4272   12.5780 H   0  0  0  0  0  0  0  0  0  0  0  0
   -6.4535   11.2836    9.7325 H   0  0  0  0  0  0  0  0  0  0  0  0
   -5.3820   10.5103    8.3002 H   0  0  0  0  0  0  0  0  0  0  0  0
   -7.0108   10.0498    7.8403 H   0  0  0  0  0  0  0  0  0  0  0  0
   -4.4343    9.6397    6.6731 H   0  0  0  0  0  0  0  0  0  0  0  0
   -6.0304    9.6997    5.9884 H   0  0  0  0  0  0  0  0  0  0  0  0
  1  2  1  0  0  0  0
  1 21  1  0  0  0  0
  1 22  1  0  0  0  0
  1 23  1  0  0  0  0
  2  3  1  0  0  0  0
  2  4  1  0  0  0  0
  2 24  1  0  0  0  0
  3 25  1  0  0  0  0
  3 26  1  0  0  0  0
  3 27  1  0  0  0  0
  4  5  1  0  0  0  0
  4 28  1  0  0  0  0
  4 29  1  0  0  0  0
  5  6  1  0  0  0  0
  5  7  1  0  0  0  0
  5 30  1  1  0  0  0
  6 31  1  0  0  0  0
  7  8  2  0  0  0  0
  7  9  1  0  0  0  0
  8 15  1  0  0  0  0
  8 32  1  0  0  0  0
  9 10  1  0  0  0  0
  9 12  2  0  0  0  0
 10 11  1  0  0  0  0
 11 33  1  0  0  0  0
 11 34  1  0  0  0  0
 11 35  1  0  0  0  0
 12 13  1  0  0  0  0
 12 36  1  0  0  0  0
 13 14  1  0  0  0  0
 13 15  2  0  0  0  0
 14 37  1  0  0  0  0
 15 16  1  0  0  0  0
 16 17  1  0  0  0  0
 16 38  1  0  0  0  0
 16 39  1  0  0  0  0
 17 18  1  0  0  0  0
 17 40  1  0  0  0  0
 17 41  1  0  0  0  0
 18 19  2  0  0  0  0
 18 20  1  0  0  0  0
M  END
$$$$
