TO1
 OpenBabel04091915003D

 34 36  0  0  1  0  0  0  0  0999 V2000
    7.6058    2.1573   25.3259 C   0  0  2  0  0  0  0  0  0  0  0  0
    8.4658    2.2371   26.5147 N   0  3  0  0  0  0  0  0  0  0  0  0
    7.3162    0.7774   24.9967 O   0  0  0  0  0  0  0  0  0  0  0  0
    8.4790    3.3218   27.4008 C   0  0  0  0  0  0  0  0  0  0  0  0
    7.7203    4.4318   27.2815 N   0  0  0  0  0  0  0  0  0  0  0  0
    7.1373    3.3326   23.2552 O   0  0  0  0  0  0  0  0  0  0  0  0
    7.9112    5.3448   28.2523 C   0  0  0  0  0  0  0  0  0  0  0  0
    8.7797    5.2315   29.2784 N   0  0  0  0  0  0  0  0  0  0  0  0
    8.5083    1.9199   21.9135 O   0  0  0  0  0  0  0  0  0  0  0  0
    9.5404    4.0865   29.3893 C   0  0  0  0  0  0  0  0  0  0  0  0
   11.8052    0.6333   29.3875 N   0  0  0  0  0  0  0  0  0  0  0  0
   10.1013   -0.5032   24.1272 O   0  0  0  0  0  0  0  0  0  0  0  0
    9.3925    3.0715   28.4013 C   0  0  0  0  0  0  0  0  0  0  0  0
   10.4270    3.9742   30.4467 N   0  0  0  0  0  0  0  0  0  0  0  0
    9.9295    1.7818   28.0847 C   0  0  0  0  0  0  0  0  0  0  0  0
    9.3678    1.2779   26.9305 C   0  0  0  0  0  0  0  0  0  0  0  0
   10.9310    1.0779   28.8221 C   0  0  0  0  0  0  0  0  0  0  0  0
    8.1984    2.7923   24.0898 C   0  0  2  0  0  0  0  0  0  0  0  0
    8.7593    1.6418   23.3025 C   0  0  1  0  0  0  0  0  0  0  0  0
    7.9191    0.4547   23.7254 C   0  0  1  0  0  0  0  0  0  0  0  0
    8.7333   -0.8265   23.8831 C   0  0  0  0  0  0  0  0  0  0  0  0
    6.6651    2.6450   25.5837 H   0  0  0  0  0  0  0  0  0  0  0  0
    7.5729    3.7088   22.4618 H   0  0  0  0  0  0  0  0  0  0  0  0
    7.3021    6.2623   28.1985 H   0  0  0  0  0  0  0  0  0  0  0  0
    7.5284    1.9920   21.8365 H   0  0  0  0  0  0  0  0  0  0  0  0
   10.6159   -1.3165   24.2210 H   0  0  0  0  0  0  0  0  0  0  0  0
   10.9788    3.1336   30.5227 H   0  0  0  0  0  0  0  0  0  0  0  0
   10.5299    4.7170   31.1367 H   0  0  0  0  0  0  0  0  0  0  0  0
    9.5148    0.3341   26.3939 H   0  0  0  0  0  0  0  0  0  0  0  0
    8.9362    3.5634   24.3283 H   0  0  0  0  0  0  0  0  0  0  0  0
    9.8276    1.5084   23.4817 H   0  0  0  0  0  0  0  0  0  0  0  0
    7.1273    0.2710   22.9827 H   0  0  0  0  0  0  0  0  0  0  0  0
    8.3510   -1.4006   24.7336 H   0  0  0  0  0  0  0  0  0  0  0  0
    8.6614   -1.4264   22.9716 H   0  0  0  0  0  0  0  0  0  0  0  0
  1  2  1  0  0  0  0
  1  3  1  0  0  0  0
  1 18  1  0  0  0  0
  1 22  1  1  0  0  0
  2  4  2  0  0  0  0
  2 16  1  0  0  0  0
  3 20  1  0  0  0  0
  4  5  1  0  0  0  0
  4 13  1  0  0  0  0
  5  7  1  0  0  0  0
  6 18  1  0  0  0  0
  6 23  1  0  0  0  0
  7  8  2  0  0  0  0
  7 24  1  0  0  0  0
  8 10  1  0  0  0  0
  9 19  1  0  0  0  0
  9 25  1  0  0  0  0
 10 13  2  0  0  0  0
 10 14  1  0  0  0  0
 11 17  3  0  0  0  0
 12 21  1  0  0  0  0
 12 26  1  0  0  0  0
 13 15  1  0  0  0  0
 14 27  1  0  0  0  0
 14 28  1  0  0  0  0
 15 16  2  0  0  0  0
 15 17  1  0  0  0  0
 16 29  1  0  0  0  0
 18 19  1  0  0  0  0
 18 30  1  1  0  0  0
 19 20  1  0  0  0  0
 19 31  1  1  0  0  0
 20 21  1  0  0  0  0
 20 32  1  6  0  0  0
 21 33  1  0  0  0  0
 21 34  1  0  0  0  0
M  CHG  1   2   1
M  END
$$$$
