TOR
 OpenBabel04091913413D

 43 45  0  0  1  0  0  0  0  0999 V2000
  -19.8816   36.8038   44.8292 C   0  0  0  0  0  0  0  0  0  0  0  0
  -18.7211   36.6970   43.8498 C   0  0  0  0  0  0  0  0  0  0  0  0
  -19.1088   37.4408   42.5552 C   0  0  0  0  0  0  0  0  0  0  0  0
  -18.4804   35.3122   43.5848 O   0  0  0  0  0  0  0  0  0  0  0  0
  -17.5436   37.2595   44.4371 O   0  0  0  0  0  0  0  0  0  0  0  0
  -16.4631   36.4748   43.8969 C   0  0  1  0  0  0  0  0  0  0  0  0
  -15.2371   36.5405   44.7968 C   0  0  2  0  0  0  0  0  0  0  0  0
  -14.0759   36.2325   44.0175 O   0  0  0  0  0  0  0  0  0  0  0  0
  -13.2447   35.3876   44.8048 C   0  0  0  0  0  0  0  0  0  0  0  0
  -12.0007   36.1435   45.2576 C   0  0  0  0  0  0  0  0  0  0  0  0
  -12.8788   34.1803   43.9528 C   0  0  0  0  0  0  0  0  0  0  0  0
  -13.9451   34.9432   45.9590 O   0  0  0  0  0  0  0  0  0  0  0  0
  -15.2197   35.6000   45.9823 C   0  0  2  0  0  0  0  0  0  0  0  0
  -16.3243   34.5521   46.0066 C   0  0  0  0  0  0  0  0  0  0  0  0
  -16.7803   34.1181   44.7434 O   0  0  0  0  0  0  0  0  0  0  0  0
  -17.0649   35.0800   43.7257 C   0  0  1  0  0  0  0  0  0  0  0  0
  -16.6010   34.3274   42.4697 C   0  0  0  0  0  0  0  0  0  0  0  0
  -16.7409   35.1114   41.3057 O   0  0  0  0  0  0  0  0  0  0  0  0
  -16.3592   34.4933   39.8615 S   0  0  0  0  0  0  0  0  0  0  0  0
  -17.3208   33.4920   39.5048 O   0  0  0  0  0  0  0  0  0  0  0  0
  -16.0622   35.6188   38.9917 O   0  0  0  0  0  0  0  0  0  0  0  0
  -14.9217   33.7096   40.0884 N   0  0  0  0  0  0  0  0  0  0  0  0
  -20.8166   36.4539   44.3787 H   0  0  0  0  0  0  0  0  0  0  0  0
  -20.0261   37.8308   45.1866 H   0  0  0  0  0  0  0  0  0  0  0  0
  -19.6927   36.1722   45.7051 H   0  0  0  0  0  0  0  0  0  0  0  0
  -18.2966   37.4197   41.8211 H   0  0  0  0  0  0  0  0  0  0  0  0
  -19.3419   38.4959   42.7409 H   0  0  0  0  0  0  0  0  0  0  0  0
  -19.9820   36.9812   42.0767 H   0  0  0  0  0  0  0  0  0  0  0  0
  -16.2101   36.9230   42.9259 H   0  0  0  0  0  0  0  0  0  0  0  0
  -15.1235   37.5676   45.1670 H   0  0  0  0  0  0  0  0  0  0  0  0
  -11.4046   36.4971   44.4098 H   0  0  0  0  0  0  0  0  0  0  0  0
  -11.3695   35.5167   45.8983 H   0  0  0  0  0  0  0  0  0  0  0  0
  -12.2848   37.0217   45.8467 H   0  0  0  0  0  0  0  0  0  0  0  0
  -12.1922   33.5070   44.4774 H   0  0  0  0  0  0  0  0  0  0  0  0
  -12.4368   34.4789   42.9967 H   0  0  0  0  0  0  0  0  0  0  0  0
  -13.7760   33.5974   43.7269 H   0  0  0  0  0  0  0  0  0  0  0  0
  -15.2634   36.1500   46.9293 H   0  0  0  0  0  0  0  0  0  0  0  0
  -17.1801   34.8850   46.5926 H   0  0  0  0  0  0  0  0  0  0  0  0
  -15.9277   33.6493   46.4988 H   0  0  0  0  0  0  0  0  0  0  0  0
  -17.1625   33.3898   42.3761 H   0  0  0  0  0  0  0  0  0  0  0  0
  -15.5535   34.0607   42.6015 H   0  0  0  0  0  0  0  0  0  0  0  0
  -14.5034   33.2723   39.2713 H   0  0  0  0  0  0  0  0  0  0  0  0
  -14.4687   33.6591   40.9928 H   0  0  0  0  0  0  0  0  0  0  0  0
  1  2  1  0  0  0  0
  1 23  1  0  0  0  0
  1 24  1  0  0  0  0
  1 25  1  0  0  0  0
  2  3  1  0  0  0  0
  2  4  1  0  0  0  0
  2  5  1  0  0  0  0
  3 26  1  0  0  0  0
  3 27  1  0  0  0  0
  3 28  1  0  0  0  0
  4 16  1  0  0  0  0
  5  6  1  0  0  0  0
  6  7  1  0  0  0  0
  6 16  1  0  0  0  0
  6 29  1  6  0  0  0
  7  8  1  0  0  0  0
  7 13  1  0  0  0  0
  7 30  1  1  0  0  0
  8  9  1  0  0  0  0
  9 10  1  0  0  0  0
  9 11  1  0  0  0  0
  9 12  1  0  0  0  0
 10 31  1  0  0  0  0
 10 32  1  0  0  0  0
 10 33  1  0  0  0  0
 11 34  1  0  0  0  0
 11 35  1  0  0  0  0
 11 36  1  0  0  0  0
 12 13  1  0  0  0  0
 13 14  1  0  0  0  0
 13 37  1  1  0  0  0
 14 15  1  0  0  0  0
 14 38  1  0  0  0  0
 14 39  1  0  0  0  0
 15 16  1  0  0  0  0
 16 17  1  6  0  0  0
 17 18  1  0  0  0  0
 17 40  1  0  0  0  0
 17 41  1  0  0  0  0
 18 19  1  0  0  0  0
 19 20  2  0  0  0  0
 19 21  2  0  0  0  0
 19 22  1  0  0  0  0
 22 42  1  0  0  0  0
 22 43  1  0  0  0  0
M  END
$$$$
