TXT
 OpenBabel04091913193D

109113  0  0  1  0  0  0  0  0999 V2000
   -8.3112  -14.3385   18.9862 C   0  0  1  0  0  0  0  0  0  0  0  0
   -5.2892  -11.8869   22.8733 C   0  0  1  0  0  0  0  0  0  0  0  0
   -4.5459   -6.6636   23.9709 C   0  0  1  0  0  0  0  0  0  0  0  0
   -4.2324   -2.7072   20.3990 C   0  0  1  0  0  0  0  0  0  0  0  0
   -4.0882   -2.6795   15.1313 C   0  0  2  0  0  0  0  0  0  0  0  0
   -3.3201   -3.8610   15.0503 O   0  0  0  0  0  0  0  0  0  0  0  0
   -7.6462  -15.7264   18.8555 C   0  0  1  0  0  0  0  0  0  0  0  0
   -6.5004  -15.8914   19.6834 O   0  0  0  0  0  0  0  0  0  0  0  0
   -4.5282  -12.8506   21.9325 C   0  0  2  0  0  0  0  0  0  0  0  0
   -3.2892  -12.3101   21.4807 O   0  0  0  0  0  0  0  0  0  0  0  0
   -3.6106   -7.7400   24.5577 C   0  0  2  0  0  0  0  0  0  0  0  0
   -2.2791   -7.2700   24.7760 O   0  0  0  0  0  0  0  0  0  0  0  0
   -3.0124   -2.9179   21.3099 C   0  0  2  0  0  0  0  0  0  0  0  0
   -1.7962   -2.4791   20.6911 O   0  0  0  0  0  0  0  0  0  0  0  0
   -3.3533   -1.6129   15.9601 C   0  0  2  0  0  0  0  0  0  0  0  0
   -2.1284   -1.1700   15.3384 O   0  0  0  0  0  0  0  0  0  0  0  0
   -8.7802  -16.6524   19.3115 C   0  0  2  0  0  0  0  0  0  0  0  0
   -8.2735  -17.9589   19.5512 O   0  0  0  0  0  0  0  0  0  0  0  0
   -5.3051  -13.4541   20.7425 C   0  0  2  0  0  0  0  0  0  0  0  0
   -4.9263  -12.9714   19.4317 O   0  0  0  0  0  0  0  0  0  0  0  0
   -3.6112   -8.9510   23.6073 C   0  0  1  0  0  0  0  0  0  0  0  0
   -2.6742   -9.9243   24.0828 O   0  0  0  0  0  0  0  0  0  0  0  0
   -2.9154   -4.3945   21.7046 C   0  0  1  0  0  0  0  0  0  0  0  0
   -1.8614   -4.5531   22.6700 O   0  0  0  0  0  0  0  0  0  0  0  0
   -3.0706   -2.1437   17.3486 C   0  0  1  0  0  0  0  0  0  0  0  0
   -2.4263   -1.1610   18.1378 O   0  0  0  0  0  0  0  0  0  0  0  0
   -9.9342  -16.5850   18.2679 C   0  0  1  0  0  0  0  0  0  0  0  0
  -11.1290  -16.9579   18.9410 O   0  0  0  0  0  0  0  0  0  0  0  0
   -6.8350  -13.3898   20.8187 C   0  0  2  0  0  0  0  0  0  0  0  0
   -7.4168  -13.2240   19.3642 N   0  3  0  0  0  0  0  0  0  0  0  0
   -5.0400   -9.5483   23.5127 C   0  0  2  0  0  0  0  0  0  0  0  0
   -5.1360  -10.5331   22.4364 O   0  0  0  0  0  0  0  0  0  0  0  0
   -4.2363   -4.8757   22.3519 C   0  0  2  0  0  0  0  0  0  0  0  0
   -4.0997   -6.2857   22.6564 O   0  0  0  0  0  0  0  0  0  0  0  0
   -4.3878   -2.6205   18.0049 C   0  0  2  0  0  0  0  0  0  0  0  0
   -4.0606   -3.4025   19.1664 O   0  0  0  0  0  0  0  0  0  0  0  0
  -10.1430  -15.1843   17.6523 C   0  0  0  0  0  0  0  0  0  0  0  0
   -7.3928  -12.3176   21.7684 C   0  0  2  0  0  0  0  0  0  0  0  0
   -6.6659  -12.2729   22.9938 O   0  0  0  0  0  0  0  0  0  0  0  0
   -6.0321   -8.4097   23.1750 C   0  0  2  0  0  0  0  0  0  0  0  0
   -5.8640   -7.2123   23.9648 O   0  0  0  0  0  0  0  0  0  0  0  0
   -5.4016   -4.5640   21.3877 C   0  0  2  0  0  0  0  0  0  0  0  0
   -5.4149   -3.1608   21.0513 O   0  0  0  0  0  0  0  0  0  0  0  0
   -5.2107   -3.5167   17.0584 C   0  0  2  0  0  0  0  0  0  0  0  0
   -5.3495   -2.9731   15.7398 O   0  0  0  0  0  0  0  0  0  0  0  0
  -11.4153  -14.9244   16.8911 C   0  0  0  0  0  0  0  0  0  0  0  0
  -11.7977  -16.0764   16.1736 O   0  0  0  0  0  0  0  0  0  0  0  0
   -8.8480  -12.6778   22.1257 C   0  0  0  0  0  0  0  0  0  0  0  0
   -7.4833   -8.8763   23.4003 C   0  0  0  0  0  0  0  0  0  0  0  0
   -8.3754   -8.2145   22.5169 O   0  0  0  0  0  0  0  0  0  0  0  0
   -6.7690   -4.8603   22.0104 C   0  0  0  0  0  0  0  0  0  0  0  0
   -7.8052   -4.7332   21.0362 O   0  0  0  0  0  0  0  0  0  0  0  0
   -6.6346   -3.7167   17.5973 C   0  0  0  0  0  0  0  0  0  0  0  0
   -7.3520   -2.4895   17.6465 O   0  0  0  0  0  0  0  0  0  0  0  0
   -9.2574  -14.1754   17.8506 C   0  0  0  0  0  0  0  0  0  0  0  0
   -8.9754  -14.3423   19.8533 H   0  0  0  0  0  0  0  0  0  0  0  0
   -4.8487  -12.0005   23.8740 H   0  0  0  0  0  0  0  0  0  0  0  0
   -4.5400   -5.8067   24.6423 H   0  0  0  0  0  0  0  0  0  0  0  0
   -4.3405   -1.6297   20.2323 H   0  0  0  0  0  0  0  0  0  0  0  0
   -4.2667   -2.3272   14.1135 H   0  0  0  0  0  0  0  0  0  0  0  0
   -3.7802   -4.4407   14.4249 H   0  0  0  0  0  0  0  0  0  0  0  0
   -7.3384  -15.9667   17.8272 H   0  0  0  0  0  0  0  0  0  0  0  0
   -5.7226  -15.6517   19.1466 H   0  0  0  0  0  0  0  0  0  0  0  0
   -4.2708  -13.7104   22.5685 H   0  0  0  0  0  0  0  0  0  0  0  0
   -3.4846  -11.4078   21.1594 H   0  0  0  0  0  0  0  0  0  0  0  0
   -3.9866   -8.0441   25.5436 H   0  0  0  0  0  0  0  0  0  0  0  0
   -1.9544   -6.8820   23.9505 H   0  0  0  0  0  0  0  0  0  0  0  0
   -3.1312   -2.3273   22.2259 H   0  0  0  0  0  0  0  0  0  0  0  0
   -1.9517   -1.5791   20.3432 H   0  0  0  0  0  0  0  0  0  0  0  0
   -4.0114   -0.7000   16.0287 H   0  0  0  0  0  0  0  0  0  0  0  0
   -2.3461   -0.8283   14.4530 H   0  0  0  0  0  0  0  0  0  0  0  0
   -9.1703  -16.3236   20.2852 H   0  0  0  0  0  0  0  0  0  0  0  0
   -7.6298  -17.8624   20.2847 H   0  0  0  0  0  0  0  0  0  0  0  0
   -5.0037  -14.5107   20.7633 H   0  0  0  0  0  0  0  0  0  0  0  0
   -4.7711  -13.7439   18.8527 H   0  0  0  0  0  0  0  0  0  0  0  0
   -3.2557   -8.6642   22.6109 H   0  0  0  0  0  0  0  0  0  0  0  0
   -1.8410   -9.4183   24.2522 H   0  0  0  0  0  0  0  0  0  0  0  0
   -2.6439   -5.0143   20.8359 H   0  0  0  0  0  0  0  0  0  0  0  0
   -1.6512   -5.4959   22.6804 H   0  0  0  0  0  0  0  0  0  0  0  0
   -2.3618   -2.9997   17.2799 H   0  0  0  0  0  0  0  0  0  0  0  0
   -1.5971   -0.9694   17.6490 H   0  0  0  0  0  0  0  0  0  0  0  0
   -9.7146  -17.3052   17.4663 H   0  0  0  0  0  0  0  0  0  0  0  0
  -11.6577  -17.4866   18.3197 H   0  0  0  0  0  0  0  0  0  0  0  0
   -7.1838  -14.3536   21.2043 H   0  0  0  0  0  0  0  0  0  0  0  0
   -6.6372  -13.0616   18.7063 H   0  0  0  0  0  0  0  0  0  0  0  0
   -5.2965  -10.0025   24.4813 H   0  0  0  0  0  0  0  0  0  0  0  0
   -4.3581   -4.2980   23.2769 H   0  0  0  0  0  0  0  0  0  0  0  0
   -4.9691   -1.7263   18.2766 H   0  0  0  0  0  0  0  0  0  0  0  0
   -7.3797  -11.3344   21.2946 H   0  0  0  0  0  0  0  0  0  0  0  0
   -5.9195   -8.1390   22.1224 H   0  0  0  0  0  0  0  0  0  0  0  0
   -5.3103   -5.1596   20.4689 H   0  0  0  0  0  0  0  0  0  0  0  0
   -4.7495   -4.5045   16.9893 H   0  0  0  0  0  0  0  0  0  0  0  0
  -11.2963  -14.1012   16.1808 H   0  0  0  0  0  0  0  0  0  0  0  0
  -12.2084  -14.6380   17.5963 H   0  0  0  0  0  0  0  0  0  0  0  0
  -12.3846  -16.5943   16.7499 H   0  0  0  0  0  0  0  0  0  0  0  0
   -9.2583  -11.9690   22.8501 H   0  0  0  0  0  0  0  0  0  0  0  0
   -8.9070  -13.6670   22.6003 H   0  0  0  0  0  0  0  0  0  0  0  0
   -9.5015  -12.6846   21.2480 H   0  0  0  0  0  0  0  0  0  0  0  0
   -7.8003   -8.6803   24.4371 H   0  0  0  0  0  0  0  0  0  0  0  0
   -7.6053   -9.9424   23.2111 H   0  0  0  0  0  0  0  0  0  0  0  0
   -9.2657   -8.3465   22.8716 H   0  0  0  0  0  0  0  0  0  0  0  0
   -6.9782   -4.1583   22.8244 H   0  0  0  0  0  0  0  0  0  0  0  0
   -6.8316   -5.8766   22.3780 H   0  0  0  0  0  0  0  0  0  0  0  0
   -8.6447   -4.8484   21.5130 H   0  0  0  0  0  0  0  0  0  0  0  0
   -6.6284   -4.1617   18.5982 H   0  0  0  0  0  0  0  0  0  0  0  0
   -7.1932   -4.3910   16.9339 H   0  0  0  0  0  0  0  0  0  0  0  0
   -7.3450   -2.1319   16.7409 H   0  0  0  0  0  0  0  0  0  0  0  0
   -9.3496  -13.2334   17.3190 H   0  0  0  0  0  0  0  0  0  0  0  0
   -7.9470  -12.3448   19.3219 H   0  0  0  0  0  0  0  0  0  0  0  0
  1  7  1  0  0  0  0
  1 30  1  0  0  0  0
  1 55  1  0  0  0  0
  1 56  1  1  0  0  0
  2  9  1  0  0  0  0
  2 32  1  0  0  0  0
  2 39  1  0  0  0  0
  2 57  1  1  0  0  0
  3 11  1  0  0  0  0
  3 34  1  0  0  0  0
  3 41  1  0  0  0  0
  3 58  1  1  0  0  0
  4 13  1  0  0  0  0
  4 36  1  0  0  0  0
  4 43  1  0  0  0  0
  4 59  1  6  0  0  0
  5  6  1  0  0  0  0
  5 15  1  0  0  0  0
  5 45  1  0  0  0  0
  5 60  1  6  0  0  0
  6 61  1  0  0  0  0
  7  8  1  0  0  0  0
  7 17  1  0  0  0  0
  7 62  1  6  0  0  0
  8 63  1  0  0  0  0
  9 10  1  0  0  0  0
  9 19  1  0  0  0  0
  9 64  1  1  0  0  0
 10 65  1  0  0  0  0
 11 12  1  0  0  0  0
 11 21  1  0  0  0  0
 11 66  1  1  0  0  0
 12 67  1  0  0  0  0
 13 14  1  0  0  0  0
 13 23  1  0  0  0  0
 13 68  1  1  0  0  0
 14 69  1  0  0  0  0
 15 16  1  0  0  0  0
 15 25  1  0  0  0  0
 15 70  1  1  0  0  0
 16 71  1  0  0  0  0
 17 18  1  0  0  0  0
 17 27  1  0  0  0  0
 17 72  1  1  0  0  0
 18 73  1  0  0  0  0
 19 20  1  0  0  0  0
 19 29  1  0  0  0  0
 19 74  1  1  0  0  0
 20 75  1  0  0  0  0
 21 22  1  0  0  0  0
 21 31  1  0  0  0  0
 21 76  1  6  0  0  0
 22 77  1  0  0  0  0
 23 24  1  0  0  0  0
 23 33  1  0  0  0  0
 23 78  1  6  0  0  0
 24 79  1  0  0  0  0
 25 26  1  0  0  0  0
 25 35  1  0  0  0  0
 25 80  1  6  0  0  0
 26 81  1  0  0  0  0
 27 28  1  0  0  0  0
 27 37  1  0  0  0  0
 27 82  1  6  0  0  0
 28 83  1  0  0  0  0
 29 30  1  0  0  0  0
 29 38  1  0  0  0  0
 29 84  1  1  0  0  0
 30 85  1  0  0  0  0
 30109  1  0  0  0  0
 31 32  1  0  0  0  0
 31 40  1  0  0  0  0
 31 86  1  1  0  0  0
 33 34  1  0  0  0  0
 33 42  1  0  0  0  0
 33 87  1  1  0  0  0
 35 36  1  0  0  0  0
 35 44  1  0  0  0  0
 35 88  1  1  0  0  0
 37 46  1  0  0  0  0
 37 55  2  0  0  0  0
 38 39  1  0  0  0  0
 38 48  1  0  0  0  0
 38 89  1  6  0  0  0
 40 41  1  0  0  0  0
 40 49  1  0  0  0  0
 40 90  1  6  0  0  0
 42 43  1  0  0  0  0
 42 51  1  0  0  0  0
 42 91  1  6  0  0  0
 44 45  1  0  0  0  0
 44 53  1  0  0  0  0
 44 92  1  6  0  0  0
 46 47  1  0  0  0  0
 46 93  1  0  0  0  0
 46 94  1  0  0  0  0
 47 95  1  0  0  0  0
 48 96  1  0  0  0  0
 48 97  1  0  0  0  0
 48 98  1  0  0  0  0
 49 50  1  0  0  0  0
 49 99  1  0  0  0  0
 49100  1  0  0  0  0
 50101  1  0  0  0  0
 51 52  1  0  0  0  0
 51102  1  0  0  0  0
 51103  1  0  0  0  0
 52104  1  0  0  0  0
 53 54  1  0  0  0  0
 53105  1  0  0  0  0
 53106  1  0  0  0  0
 54107  1  0  0  0  0
 55108  1  0  0  0  0
M  CHG  1  30   1
M  END
$$$$
