TZ1
 OpenBabel04091914103D

 34 37  0  0  0  0  0  0  0  0999 V2000
    6.7022   15.5598   22.2918 C   0  0  0  0  0  0  0  0  0  0  0  0
    8.4101   14.1889   21.4441 N   0  0  0  0  0  0  0  0  0  0  0  0
    7.2047    4.8839   22.5506 O   0  0  0  0  0  0  0  0  0  0  0  0
    5.7378   10.4847   21.9777 S   0  0  0  0  0  0  0  0  0  0  0  0
    4.8748   17.3256   23.2199 Cl  0  0  0  0  0  0  0  0  0  0  0  0
    7.1648   14.2983   21.9385 C   0  0  0  0  0  0  0  0  0  0  0  0
    7.4855    7.9122   19.6388 N   0  0  0  0  0  0  0  0  0  0  0  0
    6.7413    7.6774   22.0605 S   0  0  0  0  0  0  0  0  0  0  0  0
    6.3179   13.1816   22.1127 C   0  0  0  0  0  0  0  0  0  0  0  0
    6.9507    9.1398   19.9804 N   0  0  0  0  0  0  0  0  0  0  0  0
    8.1986    2.1078   21.9963 S   0  0  0  0  0  0  0  0  0  0  0  0
    5.0232   13.4002   22.6520 C   0  0  0  0  0  0  0  0  0  0  0  0
    7.8574    5.7686   20.5171 N   0  0  0  0  0  0  0  0  0  0  0  0
    4.5757   14.6688   22.9977 C   0  0  0  0  0  0  0  0  0  0  0  0
    5.4213   15.7470   22.8102 C   0  0  0  0  0  0  0  0  0  0  0  0
    8.8572   12.9646   21.1014 C   0  0  0  0  0  0  0  0  0  0  0  0
    8.1139   11.8068   21.2305 C   0  0  0  0  0  0  0  0  0  0  0  0
    6.8169   11.9019   21.7334 C   0  0  0  0  0  0  0  0  0  0  0  0
    6.5383    9.1525   21.2281 C   0  0  0  0  0  0  0  0  0  0  0  0
    7.4071    7.0520   20.6341 C   0  0  0  0  0  0  0  0  0  0  0  0
    7.7578    4.7650   21.4647 C   0  0  0  0  0  0  0  0  0  0  0  0
    8.3750    3.5132   21.0232 C   0  0  0  0  0  0  0  0  0  0  0  0
    9.1343    3.2417   19.8997 C   0  0  0  0  0  0  0  0  0  0  0  0
    9.5236    1.8746   19.8139 C   0  0  0  0  0  0  0  0  0  0  0  0
    9.1079    1.1559   20.9090 C   0  0  0  0  0  0  0  0  0  0  0  0
    7.3579   16.4155   22.1558 H   0  0  0  0  0  0  0  0  0  0  0  0
    4.3314   12.5753   22.8132 H   0  0  0  0  0  0  0  0  0  0  0  0
    8.2509    5.5783   19.6115 H   0  0  0  0  0  0  0  0  0  0  0  0
    3.5762   14.7946   23.4046 H   0  0  0  0  0  0  0  0  0  0  0  0
    9.8703   12.9358   20.7061 H   0  0  0  0  0  0  0  0  0  0  0  0
    8.5668   10.8684   20.9296 H   0  0  0  0  0  0  0  0  0  0  0  0
    9.4101    3.9693   19.1480 H   0  0  0  0  0  0  0  0  0  0  0  0
   10.0963    1.4524   18.9981 H   0  0  0  0  0  0  0  0  0  0  0  0
    9.2895    0.1109   21.1227 H   0  0  0  0  0  0  0  0  0  0  0  0
  1  6  2  0  0  0  0
  1 15  1  0  0  0  0
  1 26  1  0  0  0  0
  2  6  1  0  0  0  0
  2 16  2  0  0  0  0
  3 21  2  0  0  0  0
  4 18  1  0  0  0  0
  4 19  1  0  0  0  0
  5 15  1  0  0  0  0
  6  9  1  0  0  0  0
  7 10  1  0  0  0  0
  7 20  2  0  0  0  0
  8 19  1  0  0  0  0
  8 20  1  0  0  0  0
  9 12  2  0  0  0  0
  9 18  1  0  0  0  0
 10 19  2  0  0  0  0
 11 22  1  0  0  0  0
 11 25  1  0  0  0  0
 12 14  1  0  0  0  0
 12 27  1  0  0  0  0
 13 20  1  0  0  0  0
 13 21  1  0  0  0  0
 13 28  1  0  0  0  0
 14 15  2  0  0  0  0
 14 29  1  0  0  0  0
 16 17  1  0  0  0  0
 16 30  1  0  0  0  0
 17 18  2  0  0  0  0
 17 31  1  0  0  0  0
 21 22  1  0  0  0  0
 22 23  2  0  0  0  0
 23 24  1  0  0  0  0
 23 32  1  0  0  0  0
 24 25  2  0  0  0  0
 24 33  1  0  0  0  0
 25 34  1  0  0  0  0
M  END
$$$$
