TZG
 OpenBabel04091915493D

 33 33  0  0  1  0  0  0  0  0999 V2000
   -7.5912   27.6992   56.5353 N   0  0  0  0  0  0  0  0  0  0  0  0
   -3.8963   27.6328   57.2606 C   0  0  0  0  0  0  0  0  0  0  0  0
   -5.2515   27.9713   57.3757 C   0  0  0  0  0  0  0  0  0  0  0  0
   -6.1684   27.3764   56.5194 C   0  0  0  0  0  0  0  0  0  0  0  0
   -1.9601   26.3579   56.2656 C   0  0  0  0  0  0  0  0  0  0  0  0
   -1.7005   24.9791   56.8729 C   0  0  1  0  0  0  0  0  0  0  0  0
   -4.5205   25.4871   52.9789 C   0  0  0  0  0  0  0  0  0  0  0  0
    0.2089   24.4098   55.5465 O   0  0  0  0  0  0  0  0  0  0  0  0
   -0.1971   24.6531   56.7033 C   0  0  0  0  0  0  0  0  0  0  0  0
    0.3931   24.6537   57.8306 O   0  0  0  0  0  0  0  0  0  0  0  0
   -2.0891   25.0138   58.3462 N   0  3  0  0  0  0  0  0  0  0  0  0
   -3.4450   26.7041   56.2999 C   0  0  0  0  0  0  0  0  0  0  0  0
   -5.6640   29.0522   58.6610 Cl  0  0  0  0  0  0  0  0  0  0  0  0
   -8.3908   26.7713   56.3432 O   0  0  0  0  0  0  0  0  0  0  0  0
   -7.9195   28.8760   56.7466 O   0  0  0  0  0  0  0  0  0  0  0  0
   -5.7393   26.4269   55.5879 C   0  0  0  0  0  0  0  0  0  0  0  0
   -4.3737   26.0997   55.4456 C   0  0  0  0  0  0  0  0  0  0  0  0
   -4.0002   25.0902   54.3588 C   0  0  0  0  0  0  0  0  0  0  0  0
   -5.9764   25.0872   52.7425 C   0  0  0  0  0  0  0  0  0  0  0  0
   -6.6488   25.9253   52.0809 O   0  0  0  0  0  0  0  0  0  0  0  0
   -6.3510   24.0173   53.2978 O   0  0  0  0  0  0  0  0  0  0  0  0
   -3.1796   28.1021   57.9357 H   0  0  0  0  0  0  0  0  0  0  0  0
   -1.5961   26.4289   55.2348 H   0  0  0  0  0  0  0  0  0  0  0  0
   -1.3927   27.1208   56.8143 H   0  0  0  0  0  0  0  0  0  0  0  0
   -2.3082   24.1845   56.4321 H   0  0  0  0  0  0  0  0  0  0  0  0
   -3.9324   24.9807   52.2053 H   0  0  0  0  0  0  0  0  0  0  0  0
   -4.3963   26.5669   52.8261 H   0  0  0  0  0  0  0  0  0  0  0  0
   -1.8421   24.0959   58.7335 H   0  0  0  0  0  0  0  0  0  0  0  0
   -1.4146   25.6485   58.7966 H   0  0  0  0  0  0  0  0  0  0  0  0
   -6.4829   25.9509   54.9525 H   0  0  0  0  0  0  0  0  0  0  0  0
   -2.9136   25.0005   54.2761 H   0  0  0  0  0  0  0  0  0  0  0  0
   -4.3520   24.0997   54.6734 H   0  0  0  0  0  0  0  0  0  0  0  0
   -3.0645   25.2589   58.5104 H   0  0  0  0  0  0  0  0  0  0  0  0
  1  4  1  0  0  0  0
  1 14  2  0  0  0  0
  1 15  2  0  0  0  0
  2  3  2  0  0  0  0
  2 12  1  0  0  0  0
  2 22  1  0  0  0  0
  3  4  1  0  0  0  0
  3 13  1  0  0  0  0
  4 16  2  0  0  0  0
  5  6  1  0  0  0  0
  5 12  1  0  0  0  0
  5 23  1  0  0  0  0
  5 24  1  0  0  0  0
  6  9  1  0  0  0  0
  6 11  1  0  0  0  0
  6 25  1  6  0  0  0
  7 18  1  0  0  0  0
  7 19  1  0  0  0  0
  7 26  1  0  0  0  0
  7 27  1  0  0  0  0
  8  9  2  0  0  0  0
  9 10  1  0  0  0  0
 11 28  1  0  0  0  0
 11 29  1  0  0  0  0
 11 33  1  0  0  0  0
 12 17  2  0  0  0  0
 16 17  1  0  0  0  0
 16 30  1  0  0  0  0
 17 18  1  0  0  0  0
 18 31  1  0  0  0  0
 18 32  1  0  0  0  0
 19 20  2  0  0  0  0
 19 21  1  0  0  0  0
M  CHG  1  11   1
M  END
$$$$
