U2P
 OpenBabel04091911293D

 32 33  0  0  1  0  0  0  0  0999 V2000
   29.5665   42.9740    8.5436 O   0  0  0  0  0  0  0  0  0  0  0  0
   29.9321   44.1332    7.7865 C   0  0  0  0  0  0  0  0  0  0  0  0
   29.7816   43.9738    6.2633 C   0  0  1  0  0  0  0  0  0  0  0  0
   30.8158   43.0828    5.7847 O   0  0  0  0  0  0  0  0  0  0  0  0
   30.2394   42.3224    4.6800 C   0  0  1  0  0  0  0  0  0  0  0  0
   30.2117   40.8859    5.0584 N   0  3  0  0  0  0  0  0  0  0  0  0
   30.2851   40.4512    6.3738 C   0  0  0  0  0  0  0  0  0  0  0  0
   30.1969   39.1562    6.7064 C   0  0  0  0  0  0  0  0  0  0  0  0
   30.0261   38.1630    5.6390 C   0  0  0  0  0  0  0  0  0  0  0  0
   29.9656   36.9623    5.9061 O   0  0  0  0  0  0  0  0  0  0  0  0
   29.9581   38.6662    4.3796 N   0  3  0  0  0  0  0  0  0  0  0  0
   30.0552   39.9818    4.0141 C   0  0  0  0  0  0  0  0  0  0  0  0
   30.0386   40.2648    2.8211 O   0  0  0  0  0  0  0  0  0  0  0  0
   28.8477   42.9168    4.3722 C   0  0  2  0  0  0  0  0  0  0  0  0
   29.0093   44.0391    3.5178 O   0  0  0  0  0  0  0  0  0  0  0  0
   27.8308   44.3759    2.4181 P   0  0  0  0  0  0  0  0  0  0  0  0
   26.5655   44.5920    3.2280 O   0  0  0  0  0  0  0  0  0  0  0  0
   28.3713   45.6183    1.7398 O   0  0  0  0  0  0  0  0  0  0  0  0
   27.7934   43.1319    1.5417 O   0  0  0  0  0  0  0  0  0  0  0  0
   28.4597   43.3702    5.7738 C   0  0  2  0  0  0  0  0  0  0  0  0
   27.3731   44.2441    5.8396 O   0  0  0  0  0  0  0  0  0  0  0  0
   28.6293   42.7942    8.3581 H   0  0  0  0  0  0  0  0  0  0  0  0
   30.9824   44.3335    8.0278 H   0  0  0  0  0  0  0  0  0  0  0  0
   29.3334   44.9687    8.1589 H   0  0  0  0  0  0  0  0  0  0  0  0
   29.9378   44.9611    5.8184 H   0  0  0  0  0  0  0  0  0  0  0  0
   30.9191   42.4400    3.8275 H   0  0  0  0  0  0  0  0  0  0  0  0
   30.4223   41.1932    7.1426 H   0  0  0  0  0  0  0  0  0  0  0  0
   30.2514   38.8036    7.7252 H   0  0  0  0  0  0  0  0  0  0  0  0
   29.8304   38.0238    3.6117 H   0  0  0  0  0  0  0  0  0  0  0  0
   28.1547   42.1850    3.9501 H   0  0  0  0  0  0  0  0  0  0  0  0
   28.1918   42.4874    6.3651 H   0  0  0  0  0  0  0  0  0  0  0  0
   27.2388   44.6066    6.7101 H   0  0  0  0  0  0  0  0  0  0  0  0
  1  2  1  0  0  0  0
  1 22  1  0  0  0  0
  2  3  1  0  0  0  0
  2 23  1  0  0  0  0
  2 24  1  0  0  0  0
  3  4  1  0  0  0  0
  3 20  1  0  0  0  0
  3 25  1  6  0  0  0
  4  5  1  0  0  0  0
  5  6  1  0  0  0  0
  5 14  1  0  0  0  0
  5 26  1  6  0  0  0
  6  7  1  0  0  0  0
  6 12  1  0  0  0  0
  7  8  2  0  0  0  0
  7 27  1  0  0  0  0
  8  9  1  0  0  0  0
  8 28  1  0  0  0  0
  9 10  2  0  0  0  0
  9 11  1  0  0  0  0
 11 12  1  0  0  0  0
 11 29  1  0  0  0  0
 12 13  2  0  0  0  0
 14 15  1  0  0  0  0
 14 20  1  0  0  0  0
 14 30  1  6  0  0  0
 15 16  1  0  0  0  0
 16 17  2  0  0  0  0
 16 18  1  0  0  0  0
 16 19  1  0  0  0  0
 20 21  1  0  0  0  0
 20 31  1  1  0  0  0
 21 32  1  0  0  0  0
M  CHG  2   6   1  11   1
M  END
$$$$
