U5P
 OpenBabel04091916293D

 32 33  0  0  1  0  0  0  0  0999 V2000
   16.5994   40.2268   35.8287 N   0  3  0  0  0  0  0  0  0  0  0  0
   15.6694   39.4667   36.5203 C   0  0  0  0  0  0  0  0  0  0  0  0
   14.3617   39.8244   36.3604 N   0  3  0  0  0  0  0  0  0  0  0  0
   13.8867   40.8284   35.5874 C   0  0  0  0  0  0  0  0  0  0  0  0
   14.9191   41.6186   34.8792 C   0  0  0  0  0  0  0  0  0  0  0  0
   16.2022   41.2526   34.9913 C   0  0  0  0  0  0  0  0  0  0  0  0
   15.9273   38.5410   37.2784 O   0  0  0  0  0  0  0  0  0  0  0  0
   12.7024   41.0875   35.4448 O   0  0  0  0  0  0  0  0  0  0  0  0
   18.0245   39.8845   35.9458 C   0  0  1  0  0  0  0  0  0  0  0  0
   18.6116   39.8934   37.3717 C   0  0  2  0  0  0  0  0  0  0  0  0
   19.1115   41.1867   37.7653 O   0  0  0  0  0  0  0  0  0  0  0  0
   19.7418   38.8869   37.2155 C   0  0  1  0  0  0  0  0  0  0  0  0
   19.1501   37.8646   36.2424 C   0  0  2  0  0  0  0  0  0  0  0  0
   20.8616   39.5547   36.5836 O   0  0  0  0  0  0  0  0  0  0  0  0
   18.2390   38.5935   35.3698 O   0  0  0  0  0  0  0  0  0  0  0  0
   18.4516   36.7049   36.9626 C   0  0  0  0  0  0  0  0  0  0  0  0
   19.4846   35.9409   37.5427 O   0  0  0  0  0  0  0  0  0  0  0  0
   19.1290   34.5834   38.3747 P   0  0  0  0  0  0  0  0  0  0  0  0
   17.8177   34.8896   39.0815 O   0  0  0  0  0  0  0  0  0  0  0  0
   20.3312   34.4622   39.3001 O   0  0  0  0  0  0  0  0  0  0  0  0
   19.0383   33.5103   37.3011 O   0  0  0  0  0  0  0  0  0  0  0  0
   13.7049   39.2438   36.8678 H   0  0  0  0  0  0  0  0  0  0  0  0
   14.5876   42.4441   34.2674 H   0  0  0  0  0  0  0  0  0  0  0  0
   16.9710   41.7545   34.4132 H   0  0  0  0  0  0  0  0  0  0  0  0
   18.5903   40.6116   35.3452 H   0  0  0  0  0  0  0  0  0  0  0  0
   17.9011   39.5649   38.1339 H   0  0  0  0  0  0  0  0  0  0  0  0
   18.3521   41.7911   37.7350 H   0  0  0  0  0  0  0  0  0  0  0  0
   20.0888   38.4707   38.1669 H   0  0  0  0  0  0  0  0  0  0  0  0
   19.9496   37.4619   35.6120 H   0  0  0  0  0  0  0  0  0  0  0  0
   21.1679   40.1989   37.2459 H   0  0  0  0  0  0  0  0  0  0  0  0
   17.8599   36.1183   36.2518 H   0  0  0  0  0  0  0  0  0  0  0  0
   17.7835   37.0748   37.7452 H   0  0  0  0  0  0  0  0  0  0  0  0
  1  2  1  0  0  0  0
  1  6  1  0  0  0  0
  1  9  1  0  0  0  0
  2  3  1  0  0  0  0
  2  7  2  0  0  0  0
  3  4  1  0  0  0  0
  3 22  1  0  0  0  0
  4  5  1  0  0  0  0
  4  8  2  0  0  0  0
  5  6  2  0  0  0  0
  5 23  1  0  0  0  0
  6 24  1  0  0  0  0
  9 10  1  0  0  0  0
  9 15  1  0  0  0  0
  9 25  1  6  0  0  0
 10 11  1  0  0  0  0
 10 12  1  0  0  0  0
 10 26  1  1  0  0  0
 11 27  1  0  0  0  0
 12 13  1  0  0  0  0
 12 14  1  0  0  0  0
 12 28  1  1  0  0  0
 13 15  1  0  0  0  0
 13 16  1  0  0  0  0
 13 29  1  6  0  0  0
 14 30  1  0  0  0  0
 16 17  1  0  0  0  0
 16 31  1  0  0  0  0
 16 32  1  0  0  0  0
 17 18  1  0  0  0  0
 18 19  2  0  0  0  0
 18 20  1  0  0  0  0
 18 21  1  0  0  0  0
M  CHG  2   1   1   3   1
M  END
$$$$
