UA3
 OpenBabel04091911293D

 32 33  0  0  1  0  0  0  0  0999 V2000
   29.8573   39.5744    6.6828 N   0  3  0  0  0  0  0  0  0  0  0  0
   29.6174   38.5409    5.7879 C   0  0  0  0  0  0  0  0  0  0  0  0
   29.4789   37.3832    6.0964 O   0  0  0  0  0  0  0  0  0  0  0  0
   29.4912   38.8810    4.4726 N   0  3  0  0  0  0  0  0  0  0  0  0
   29.6264   40.1469    3.9631 C   0  0  0  0  0  0  0  0  0  0  0  0
   29.5408   40.3868    2.8000 O   0  0  0  0  0  0  0  0  0  0  0  0
   29.8675   41.1931    4.9669 C   0  0  0  0  0  0  0  0  0  0  0  0
   29.9556   40.8750    6.2394 C   0  0  0  0  0  0  0  0  0  0  0  0
   30.8216   42.6320    9.0382 O   0  0  0  0  0  0  0  0  0  0  0  0
   30.6916   41.9187   10.2884 C   0  0  0  0  0  0  0  0  0  0  0  0
   30.2052   40.4685   10.1081 C   0  0  1  0  0  0  0  0  0  0  0  0
   29.4424   40.4044    8.8797 O   0  0  0  0  0  0  0  0  0  0  0  0
   31.3294   39.4239   10.0744 C   0  0  1  0  0  0  0  0  0  0  0  0
   31.1264   38.4388   11.1041 O   0  0  0  0  0  0  0  0  0  0  0  0
   31.1246   38.6387    8.7919 C   0  0  2  0  0  0  0  0  0  0  0  0
   32.3184   38.5584    8.0158 O   0  0  0  0  0  0  0  0  0  0  0  0
   29.8732   39.2535    8.1265 C   0  0  2  0  0  0  0  0  0  0  0  0
   32.2557   39.6625   12.8981 O   0  0  0  0  0  0  0  0  0  0  0  0
   32.2555   38.2727   12.3029 P   0  0  0  0  0  0  0  0  0  0  0  0
   33.5341   37.9001   11.5642 O   0  0  0  0  0  0  0  0  0  0  0  0
   31.7300   37.1225   13.1683 O   0  0  0  0  0  0  0  0  0  0  0  0
   29.3117   38.1496    3.7964 H   0  0  0  0  0  0  0  0  0  0  0  0
   29.9606   42.2042    4.5866 H   0  0  0  0  0  0  0  0  0  0  0  0
   30.1149   41.6417    6.9854 H   0  0  0  0  0  0  0  0  0  0  0  0
   29.9367   42.6150    8.6312 H   0  0  0  0  0  0  0  0  0  0  0  0
   29.9760   42.4792   10.9099 H   0  0  0  0  0  0  0  0  0  0  0  0
   31.6623   41.9381   10.7864 H   0  0  0  0  0  0  0  0  0  0  0  0
   29.5330   40.2492   10.9463 H   0  0  0  0  0  0  0  0  0  0  0  0
   32.3137   39.9036   10.1332 H   0  0  0  0  0  0  0  0  0  0  0  0
   30.8681   37.6015    9.0476 H   0  0  0  0  0  0  0  0  0  0  0  0
   32.6290   39.4626    7.8668 H   0  0  0  0  0  0  0  0  0  0  0  0
   29.0878   38.5025    8.2612 H   0  0  0  0  0  0  0  0  0  0  0  0
  1  2  1  0  0  0  0
  1  8  1  0  0  0  0
  1 17  1  0  0  0  0
  2  3  2  0  0  0  0
  2  4  1  0  0  0  0
  4  5  1  0  0  0  0
  4 22  1  0  0  0  0
  5  6  2  0  0  0  0
  5  7  1  0  0  0  0
  7  8  2  0  0  0  0
  7 23  1  0  0  0  0
  8 24  1  0  0  0  0
  9 10  1  0  0  0  0
  9 25  1  0  0  0  0
 10 11  1  0  0  0  0
 10 26  1  0  0  0  0
 10 27  1  0  0  0  0
 11 12  1  0  0  0  0
 11 13  1  0  0  0  0
 11 28  1  1  0  0  0
 12 17  1  0  0  0  0
 13 14  1  0  0  0  0
 13 15  1  0  0  0  0
 13 29  1  1  0  0  0
 14 19  1  0  0  0  0
 15 16  1  0  0  0  0
 15 17  1  0  0  0  0
 15 30  1  1  0  0  0
 16 31  1  0  0  0  0
 17 32  1  1  0  0  0
 18 19  2  0  0  0  0
 19 20  1  0  0  0  0
 19 21  1  0  0  0  0
M  CHG  2   1   1   4   1
M  END
$$$$
