UD1
 OpenBabel04091916013D

 64 66  0  0  1  0  0  0  0  0999 V2000
   86.0079    1.0047  124.1160 C   0  0  1  0  0  0  0  0  0  0  0  0
   85.9733   -0.0270  122.9413 C   0  0  1  0  0  0  0  0  0  0  0  0
   84.6691   -0.8598  123.0650 C   0  0  2  0  0  0  0  0  0  0  0  0
   84.6287   -1.5477  124.4441 C   0  0  1  0  0  0  0  0  0  0  0  0
   84.7161   -0.4704  125.5392 C   0  0  1  0  0  0  0  0  0  0  0  0
   84.7325   -1.0975  126.9460 C   0  0  0  0  0  0  0  0  0  0  0  0
   87.2521    1.0638  121.0904 C   0  0  0  0  0  0  0  0  0  0  0  0
   87.1259    1.8063  119.7815 C   0  0  0  0  0  0  0  0  0  0  0  0
   86.0667    0.5873  121.5970 N   0  0  0  0  0  0  0  0  0  0  0  0
   84.9108    1.8651  123.8856 O   0  0  0  0  0  0  0  0  0  0  0  0
   84.5787   -1.8583  122.0205 O   0  0  0  0  0  0  0  0  0  0  0  0
   83.4365   -2.3368  124.5985 O   0  0  0  0  0  0  0  0  0  0  0  0
   85.9112    0.3067  125.3670 O   0  0  0  0  0  0  0  0  0  0  0  0
   85.8405   -2.0044  127.0601 O   0  0  0  0  0  0  0  0  0  0  0  0
   88.3449    0.8338  121.6000 O   0  0  0  0  0  0  0  0  0  0  0  0
   81.5955    7.2235  129.1436 N   0  3  0  0  0  0  0  0  0  0  0  0
   80.9898    8.4460  129.4508 C   0  0  0  0  0  0  0  0  0  0  0  0
   81.6032    9.5599  128.9563 N   0  3  0  0  0  0  0  0  0  0  0  0
   82.7307    9.5827  128.1839 C   0  0  0  0  0  0  0  0  0  0  0  0
   83.3163    8.2849  127.8510 C   0  0  0  0  0  0  0  0  0  0  0  0
   82.7309    7.1901  128.3445 C   0  0  0  0  0  0  0  0  0  0  0  0
   79.9747    8.5598  130.1437 O   0  0  0  0  0  0  0  0  0  0  0  0
   83.2057   10.6618  127.7701 O   0  0  0  0  0  0  0  0  0  0  0  0
   80.9669    5.9626  129.5936 C   0  0  1  0  0  0  0  0  0  0  0  0
   80.3970    5.0801  128.4729 C   0  0  2  0  0  0  0  0  0  0  0  0
   79.0795    5.4887  128.0894 O   0  0  0  0  0  0  0  0  0  0  0  0
   80.4203    3.6910  129.1094 C   0  0  1  0  0  0  0  0  0  0  0  0
   81.6558    3.7444  130.0147 C   0  0  2  0  0  0  0  0  0  0  0  0
   81.8770    5.1450  130.3560 O   0  0  0  0  0  0  0  0  0  0  0  0
   79.2256    3.4726  129.9053 O   0  0  0  0  0  0  0  0  0  0  0  0
   82.9273    3.1464  129.3852 C   0  0  0  0  0  0  0  0  0  0  0  0
   83.1252    3.6440  128.0739 O   0  0  0  0  0  0  0  0  0  0  0  0
   84.6444    3.6738  127.4533 P   0  0  2  0  0  0  0  0  0  0  0  0
   85.4977    2.8313  128.3734 O   0  0  0  0  0  0  0  0  0  0  0  0
   84.9552    5.1346  127.2372 O   0  0  0  0  0  0  0  0  0  0  0  0
   84.3886    2.8594  126.0977 O   0  0  0  0  0  0  0  0  0  0  0  0
   84.7933    3.3187  124.6189 P   0  0  1  0  0  0  0  0  0  0  0  0
   86.1614    3.9428  124.5341 O   0  0  0  0  0  0  0  0  0  0  0  0
   83.5893    3.9526  123.9458 O   0  0  0  0  0  0  0  0  0  0  0  0
   86.9756    1.5264  124.0950 H   0  0  0  0  0  0  0  0  0  0  0  0
   86.8183   -0.7261  123.0286 H   0  0  0  0  0  0  0  0  0  0  0  0
   83.7826   -0.2248  122.9431 H   0  0  0  0  0  0  0  0  0  0  0  0
   85.4774   -2.2440  124.4977 H   0  0  0  0  0  0  0  0  0  0  0  0
   83.8318    0.1787  125.4925 H   0  0  0  0  0  0  0  0  0  0  0  0
   83.8171   -1.6700  127.1437 H   0  0  0  0  0  0  0  0  0  0  0  0
   84.8161   -0.3260  127.7229 H   0  0  0  0  0  0  0  0  0  0  0  0
   88.1249    2.0787  119.4226 H   0  0  0  0  0  0  0  0  0  0  0  0
   86.5416    2.7220  119.9026 H   0  0  0  0  0  0  0  0  0  0  0  0
   86.6584    1.1672  119.0264 H   0  0  0  0  0  0  0  0  0  0  0  0
   85.1976    0.9225  121.1981 H   0  0  0  0  0  0  0  0  0  0  0  0
   85.4020   -2.3734  122.0488 H   0  0  0  0  0  0  0  0  0  0  0  0
   83.4214   -2.9701  123.8605 H   0  0  0  0  0  0  0  0  0  0  0  0
   85.8596   -2.3127  127.9782 H   0  0  0  0  0  0  0  0  0  0  0  0
   81.1997   10.4650  129.1660 H   0  0  0  0  0  0  0  0  0  0  0  0
   84.2033    8.2226  127.2251 H   0  0  0  0  0  0  0  0  0  0  0  0
   83.1481    6.2186  128.0980 H   0  0  0  0  0  0  0  0  0  0  0  0
   80.1449    6.1963  130.2862 H   0  0  0  0  0  0  0  0  0  0  0  0
   81.0414    5.1012  127.5902 H   0  0  0  0  0  0  0  0  0  0  0  0
   78.5070    5.3555  128.8630 H   0  0  0  0  0  0  0  0  0  0  0  0
   80.4514    2.8773  128.3763 H   0  0  0  0  0  0  0  0  0  0  0  0
   81.4485    3.2276  130.9631 H   0  0  0  0  0  0  0  0  0  0  0  0
   79.1781    4.1588  130.5907 H   0  0  0  0  0  0  0  0  0  0  0  0
   82.8093    2.0577  129.3209 H   0  0  0  0  0  0  0  0  0  0  0  0
   83.7802    3.3781  130.0335 H   0  0  0  0  0  0  0  0  0  0  0  0
  1  2  1  0  0  0  0
  1 10  1  0  0  0  0
  1 13  1  0  0  0  0
  1 40  1  6  0  0  0
  2  3  1  0  0  0  0
  2  9  1  0  0  0  0
  2 41  1  1  0  0  0
  3  4  1  0  0  0  0
  3 11  1  0  0  0  0
  3 42  1  6  0  0  0
  4  5  1  0  0  0  0
  4 12  1  0  0  0  0
  4 43  1  1  0  0  0
  5  6  1  0  0  0  0
  5 13  1  0  0  0  0
  5 44  1  6  0  0  0
  6 14  1  0  0  0  0
  6 45  1  0  0  0  0
  6 46  1  0  0  0  0
  7  8  1  0  0  0  0
  7  9  1  0  0  0  0
  7 15  2  0  0  0  0
  8 47  1  0  0  0  0
  8 48  1  0  0  0  0
  8 49  1  0  0  0  0
  9 50  1  0  0  0  0
 11 51  1  0  0  0  0
 12 52  1  0  0  0  0
 14 53  1  0  0  0  0
 16 17  1  0  0  0  0
 16 21  1  0  0  0  0
 16 24  1  0  0  0  0
 17 18  1  0  0  0  0
 17 22  2  0  0  0  0
 18 19  1  0  0  0  0
 18 54  1  0  0  0  0
 19 20  1  0  0  0  0
 19 23  2  0  0  0  0
 20 21  2  0  0  0  0
 20 55  1  0  0  0  0
 21 56  1  0  0  0  0
 24 25  1  0  0  0  0
 24 29  1  0  0  0  0
 24 57  1  1  0  0  0
 25 26  1  0  0  0  0
 25 27  1  0  0  0  0
 25 58  1  6  0  0  0
 26 59  1  0  0  0  0
 27 28  1  0  0  0  0
 27 30  1  0  0  0  0
 27 60  1  6  0  0  0
 28 29  1  0  0  0  0
 28 31  1  0  0  0  0
 28 61  1  1  0  0  0
 30 62  1  0  0  0  0
 31 32  1  0  0  0  0
 31 63  1  0  0  0  0
 31 64  1  0  0  0  0
 33 32  1  1  0  0  0
 33 34  2  0  0  0  0
 33 35  1  0  0  0  0
 33 36  1  0  0  0  0
 36 37  1  0  0  0  0
 37 10  1  6  0  0  0
 37 38  2  0  0  0  0
 37 39  1  0  0  0  0
M  CHG  2  16   1  18   1
M  END
$$$$
