UP6
 OpenBabel04091912433D

 31 32  0  0  1  0  0  0  0  0999 V2000
   58.9476   58.4830   23.8220 N   0  3  0  0  0  0  0  0  0  0  0  0
   58.6104   59.3562   22.7831 C   0  0  0  0  0  0  0  0  0  0  0  0
   57.4619   60.0810   22.9772 N   0  3  0  0  0  0  0  0  0  0  0  0
   56.5746   59.8759   23.9733 C   0  0  0  0  0  0  0  0  0  0  0  0
   56.9745   58.8326   24.9753 C   0  0  0  0  0  0  0  0  0  0  0  0
   58.1178   58.2065   24.9018 N   0  0  0  0  0  0  0  0  0  0  0  0
   59.2809   59.5703   21.7763 O   0  0  0  0  0  0  0  0  0  0  0  0
   55.5210   60.4987   24.1162 O   0  0  0  0  0  0  0  0  0  0  0  0
   60.2299   57.7766   23.7420 C   0  0  1  0  0  0  0  0  0  0  0  0
   60.8737   57.3760   25.0790 C   0  0  1  0  0  0  0  0  0  0  0  0
   61.7503   56.2129   24.6359 C   0  0  1  0  0  0  0  0  0  0  0  0
   60.9314   55.5465   23.5291 C   0  0  2  0  0  0  0  0  0  0  0  0
   61.6535   58.4323   25.6754 O   0  0  0  0  0  0  0  0  0  0  0  0
   62.9669   56.7537   24.0567 O   0  0  0  0  0  0  0  0  0  0  0  0
   60.0756   56.5901   22.9739 O   0  0  0  0  0  0  0  0  0  0  0  0
   60.0492   54.3700   23.9599 C   0  0  0  0  0  0  0  0  0  0  0  0
   59.6054   53.7651   22.7584 O   0  0  0  0  0  0  0  0  0  0  0  0
   59.3133   52.1613   22.6787 P   0  0  0  0  0  0  0  0  0  0  0  0
   60.6378   51.5114   23.0497 O   0  0  0  0  0  0  0  0  0  0  0  0
   58.8984   51.9744   21.2270 O   0  0  0  0  0  0  0  0  0  0  0  0
   58.2022   51.9405   23.6964 O   0  0  0  0  0  0  0  0  0  0  0  0
   57.2477   60.7973   22.3017 H   0  0  0  0  0  0  0  0  0  0  0  0
   56.2744   58.6577   25.7977 H   0  0  0  0  0  0  0  0  0  0  0  0
   60.9305   58.4284   23.2090 H   0  0  0  0  0  0  0  0  0  0  0  0
   60.1429   57.0251   25.8138 H   0  0  0  0  0  0  0  0  0  0  0  0
   62.0314   55.5408   25.4524 H   0  0  0  0  0  0  0  0  0  0  0  0
   61.5980   55.2142   22.7259 H   0  0  0  0  0  0  0  0  0  0  0  0
   62.2360   58.7684   24.9690 H   0  0  0  0  0  0  0  0  0  0  0  0
   63.5036   57.1128   24.7795 H   0  0  0  0  0  0  0  0  0  0  0  0
   59.1749   54.7348   24.5113 H   0  0  0  0  0  0  0  0  0  0  0  0
   60.6129   53.6666   24.5801 H   0  0  0  0  0  0  0  0  0  0  0  0
  1  2  1  0  0  0  0
  1  6  1  0  0  0  0
  1  9  1  0  0  0  0
  2  3  1  0  0  0  0
  2  7  2  0  0  0  0
  3  4  1  0  0  0  0
  3 22  1  0  0  0  0
  4  5  1  0  0  0  0
  4  8  2  0  0  0  0
  5  6  2  0  0  0  0
  5 23  1  0  0  0  0
  9 10  1  0  0  0  0
  9 15  1  0  0  0  0
  9 24  1  6  0  0  0
 10 11  1  0  0  0  0
 10 13  1  0  0  0  0
 10 25  1  1  0  0  0
 11 12  1  0  0  0  0
 11 14  1  0  0  0  0
 11 26  1  1  0  0  0
 12 15  1  0  0  0  0
 12 16  1  0  0  0  0
 12 27  1  6  0  0  0
 13 28  1  0  0  0  0
 14 29  1  0  0  0  0
 16 17  1  0  0  0  0
 16 30  1  0  0  0  0
 16 31  1  0  0  0  0
 17 18  1  0  0  0  0
 18 19  2  0  0  0  0
 18 20  1  0  0  0  0
 18 21  1  0  0  0  0
M  CHG  2   1   1   3   1
M  END
$$$$
