VM2
 OpenBabel04091916433D

 44 45  0  0  1  0  0  0  0  0999 V2000
   19.3044   20.6169   37.7645 C   0  0  0  0  0  0  0  0  0  0  0  0
   18.2298   19.9292   38.6248 C   0  0  0  0  0  0  0  0  0  0  0  0
   17.8733   20.5516   39.9759 C   0  0  0  0  0  0  0  0  0  0  0  0
   18.6364   21.8136   40.3284 C   0  0  0  0  0  0  0  0  0  0  0  0
   18.6630   22.7408   39.1329 C   0  0  0  0  0  0  0  0  0  0  0  0
   19.4996   22.1400   38.0161 C   0  0  0  0  0  0  0  0  0  0  0  0
   18.2314   17.3236   34.0672 C   0  0  1  0  0  0  0  0  0  0  0  0
   17.3624   17.4435   32.7985 C   0  0  2  0  0  0  0  0  0  0  0  0
   16.8230   18.8618   32.9316 C   0  0  1  0  0  0  0  0  0  0  0  0
   18.0873   19.6385   33.2676 C   0  0  1  0  0  0  0  0  0  0  0  0
   17.8170   21.0981   33.5415 C   0  0  0  0  0  0  0  0  0  0  0  0
   19.3100   16.4033   33.9650 O   0  0  0  0  0  0  0  0  0  0  0  0
   16.2940   16.5082   32.7923 O   0  0  0  0  0  0  0  0  0  0  0  0
   16.2506   19.3197   31.7105 O   0  0  0  0  0  0  0  0  0  0  0  0
   16.7878   21.2180   34.5146 O   0  0  0  0  0  0  0  0  0  0  0  0
   18.7888   18.7584   34.3368 C   0  0  1  0  0  0  0  0  0  0  0  0
   18.5896   19.1038   35.8065 N   0  3  0  0  0  0  0  0  0  0  0  0
   19.0513   20.4508   36.2586 C   0  0  0  0  0  0  0  0  0  0  0  0
   20.2630   20.1297   37.9888 H   0  0  0  0  0  0  0  0  0  0  0  0
   18.5592   18.8963   38.8034 H   0  0  0  0  0  0  0  0  0  0  0  0
   17.2962   19.8349   38.0578 H   0  0  0  0  0  0  0  0  0  0  0  0
   17.9932   19.8128   40.7759 H   0  0  0  0  0  0  0  0  0  0  0  0
   16.8012   20.7937   39.9578 H   0  0  0  0  0  0  0  0  0  0  0  0
   19.6578   21.5668   40.6416 H   0  0  0  0  0  0  0  0  0  0  0  0
   18.1499   22.3112   41.1754 H   0  0  0  0  0  0  0  0  0  0  0  0
   19.0758   23.7169   39.4162 H   0  0  0  0  0  0  0  0  0  0  0  0
   17.6423   22.9256   38.7738 H   0  0  0  0  0  0  0  0  0  0  0  0
   19.3186   22.7294   37.1073 H   0  0  0  0  0  0  0  0  0  0  0  0
   20.5615   22.3077   38.2473 H   0  0  0  0  0  0  0  0  0  0  0  0
   17.6101   16.9746   34.9006 H   0  0  0  0  0  0  0  0  0  0  0  0
   17.9427   17.2990   31.8827 H   0  0  0  0  0  0  0  0  0  0  0  0
   16.0583   18.9072   33.7197 H   0  0  0  0  0  0  0  0  0  0  0  0
   18.7422   19.6249   32.3826 H   0  0  0  0  0  0  0  0  0  0  0  0
   17.5140   21.6338   32.6377 H   0  0  0  0  0  0  0  0  0  0  0  0
   18.7254   21.5997   33.9020 H   0  0  0  0  0  0  0  0  0  0  0  0
   19.6985   16.4337   33.0705 H   0  0  0  0  0  0  0  0  0  0  0  0
   15.7726   16.6799   31.9732 H   0  0  0  0  0  0  0  0  0  0  0  0
   15.7559   20.1423   31.8561 H   0  0  0  0  0  0  0  0  0  0  0  0
   15.9210   21.1450   34.0758 H   0  0  0  0  0  0  0  0  0  0  0  0
   19.8762   18.7832   34.1862 H   0  0  0  0  0  0  0  0  0  0  0  0
   17.5936   19.0019   36.0497 H   0  0  0  0  0  0  0  0  0  0  0  0
   19.9400   20.7175   35.6805 H   0  0  0  0  0  0  0  0  0  0  0  0
   18.2421   21.1358   36.0395 H   0  0  0  0  0  0  0  0  0  0  0  0
   19.0867   18.3800   36.3500 H   0  0  0  0  0  0  0  0  0  0  0  0
  1  2  1  0  0  0  0
  1  6  1  0  0  0  0
  1 18  1  0  0  0  0
  1 19  1  0  0  0  0
  2  3  1  0  0  0  0
  2 20  1  0  0  0  0
  2 21  1  0  0  0  0
  3  4  1  0  0  0  0
  3 22  1  0  0  0  0
  3 23  1  0  0  0  0
  4  5  1  0  0  0  0
  4 24  1  0  0  0  0
  4 25  1  0  0  0  0
  5  6  1  0  0  0  0
  5 26  1  0  0  0  0
  5 27  1  0  0  0  0
  6 28  1  0  0  0  0
  6 29  1  0  0  0  0
  7  8  1  0  0  0  0
  7 12  1  0  0  0  0
  7 16  1  0  0  0  0
  7 30  1  1  0  0  0
  8  9  1  0  0  0  0
  8 13  1  0  0  0  0
  8 31  1  6  0  0  0
  9 10  1  0  0  0  0
  9 14  1  0  0  0  0
  9 32  1  1  0  0  0
 10 11  1  0  0  0  0
 10 16  1  0  0  0  0
 10 33  1  6  0  0  0
 11 15  1  0  0  0  0
 11 34  1  0  0  0  0
 11 35  1  0  0  0  0
 12 36  1  0  0  0  0
 13 37  1  0  0  0  0
 14 38  1  0  0  0  0
 15 39  1  0  0  0  0
 16 17  1  0  0  0  0
 16 40  1  6  0  0  0
 17 18  1  0  0  0  0
 17 41  1  0  0  0  0
 17 44  1  0  0  0  0
 18 42  1  0  0  0  0
 18 43  1  0  0  0  0
M  CHG  1  17   1
M  END
$$$$
