VPR
 OpenBabel04091912383D

 27 26  0  0  0  0  0  0  0  0999 V2000
   26.5828   37.9818   58.6530 C   0  0  0  0  0  0  0  0  0  0  0  0
   26.1158   37.6102   60.0411 C   0  0  0  0  0  0  0  0  0  0  0  0
   24.5971   37.6201   60.0190 C   0  0  0  0  0  0  0  0  0  0  0  0
   23.9703   36.6590   61.0226 C   0  0  0  0  0  0  0  0  0  0  0  0
   22.4439   36.7349   60.9869 C   0  0  0  0  0  0  0  0  0  0  0  0
   21.9292   38.1507   61.2125 C   0  0  0  0  0  0  0  0  0  0  0  0
   20.9074   38.4876   60.1519 C   0  0  0  0  0  0  0  0  0  0  0  0
   24.4250   35.2380   60.7985 C   0  0  0  0  0  0  0  0  0  0  0  0
   24.1017   34.6551   59.6200 N   0  0  0  0  0  0  0  0  0  0  0  0
   25.0887   34.6101   61.6130 O   0  0  0  0  0  0  0  0  0  0  0  0
   27.6712   37.9819   58.5996 H   0  0  0  0  0  0  0  0  0  0  0  0
   26.2045   38.9729   58.3818 H   0  0  0  0  0  0  0  0  0  0  0  0
   26.1956   37.2570   57.9274 H   0  0  0  0  0  0  0  0  0  0  0  0
   26.4945   38.3331   60.7722 H   0  0  0  0  0  0  0  0  0  0  0  0
   26.5034   36.6262   60.3070 H   0  0  0  0  0  0  0  0  0  0  0  0
   24.2349   37.3923   59.0078 H   0  0  0  0  0  0  0  0  0  0  0  0
   24.3050   38.6500   60.2254 H   0  0  0  0  0  0  0  0  0  0  0  0
   24.3092   36.9356   62.0314 H   0  0  0  0  0  0  0  0  0  0  0  0
   22.0337   36.0795   61.7636 H   0  0  0  0  0  0  0  0  0  0  0  0
   22.0747   36.3560   60.0255 H   0  0  0  0  0  0  0  0  0  0  0  0
   22.7239   38.8930   61.1759 H   0  0  0  0  0  0  0  0  0  0  0  0
   21.4867   38.2403   62.2086 H   0  0  0  0  0  0  0  0  0  0  0  0
   20.5400   39.5055   60.2875 H   0  0  0  0  0  0  0  0  0  0  0  0
   20.0699   37.7891   60.2112 H   0  0  0  0  0  0  0  0  0  0  0  0
   21.3588   38.4086   59.1544 H   0  0  0  0  0  0  0  0  0  0  0  0
   24.4066   33.7211   59.4519 H   0  0  0  0  0  0  0  0  0  0  0  0
   23.5558   35.1480   58.9047 H   0  0  0  0  0  0  0  0  0  0  0  0
  1  2  1  0  0  0  0
  1 11  1  0  0  0  0
  1 12  1  0  0  0  0
  1 13  1  0  0  0  0
  2  3  1  0  0  0  0
  2 14  1  0  0  0  0
  2 15  1  0  0  0  0
  3  4  1  0  0  0  0
  3 16  1  0  0  0  0
  3 17  1  0  0  0  0
  4  5  1  0  0  0  0
  4  8  1  0  0  0  0
  4 18  1  0  0  0  0
  5  6  1  0  0  0  0
  5 19  1  0  0  0  0
  5 20  1  0  0  0  0
  6  7  1  0  0  0  0
  6 21  1  0  0  0  0
  6 22  1  0  0  0  0
  7 23  1  0  0  0  0
  7 24  1  0  0  0  0
  7 25  1  0  0  0  0
  8  9  1  0  0  0  0
  8 10  2  0  0  0  0
  9 26  1  0  0  0  0
  9 27  1  0  0  0  0
M  END
$$$$
