VX6
 OpenBabel04091911363D

 62 66  0  0  0  0  0  0  0  0999 V2000
   19.6075   30.1072   22.3578 N   0  3  0  0  0  0  0  0  0  0  0  0
   19.7883   30.6041   20.9591 C   0  0  0  0  0  0  0  0  0  0  0  0
   20.9231   29.9737   20.2069 C   0  0  0  0  0  0  0  0  0  0  0  0
   22.1145   29.7397   20.9924 N   0  0  0  0  0  0  0  0  0  0  0  0
   22.0773   29.5182   22.4315 C   0  0  0  0  0  0  0  0  0  0  0  0
   20.6763   29.2002   22.9169 C   0  0  0  0  0  0  0  0  0  0  0  0
   18.3204   29.3696   22.3940 C   0  0  0  0  0  0  0  0  0  0  0  0
   23.1801   29.1784   20.2984 C   0  0  0  0  0  0  0  0  0  0  0  0
   23.1843   29.1979   18.9151 C   0  0  0  0  0  0  0  0  0  0  0  0
   24.2510   28.6530   18.2649 C   0  0  0  0  0  0  0  0  0  0  0  0
   25.2649   28.1099   18.9547 N   0  0  0  0  0  0  0  0  0  0  0  0
   25.1978   28.1185   20.2979 C   0  0  0  0  0  0  0  0  0  0  0  0
   24.1828   28.6397   20.9879 N   0  0  0  0  0  0  0  0  0  0  0  0
   24.2100   28.7308   16.8482 N   0  0  0  0  0  0  0  0  0  0  0  0
   25.2091   28.3907   16.0118 C   0  0  0  0  0  0  0  0  0  0  0  0
   26.4530   27.8675   16.2681 C   0  0  0  0  0  0  0  0  0  0  0  0
   27.0663   27.7090   15.0112 C   0  0  0  0  0  0  0  0  0  0  0  0
   26.2517   28.1319   14.0288 N   0  0  0  0  0  0  0  0  0  0  0  0
   25.1152   28.5449   14.6507 N   0  3  0  0  0  0  0  0  0  0  0  0
   28.4231   27.1548   14.7251 C   0  0  0  0  0  0  0  0  0  0  0  0
   26.5146   27.4453   21.2856 S   0  0  0  0  0  0  0  0  0  0  0  0
   27.2600   26.3505   20.1192 C   0  0  0  0  0  0  0  0  0  0  0  0
   28.3831   26.7597   19.4130 C   0  0  0  0  0  0  0  0  0  0  0  0
   28.9451   25.9239   18.4656 C   0  0  0  0  0  0  0  0  0  0  0  0
   28.4004   24.6729   18.2376 C   0  0  0  0  0  0  0  0  0  0  0  0
   27.2835   24.2515   18.9521 C   0  0  0  0  0  0  0  0  0  0  0  0
   26.7174   25.0898   19.8974 C   0  0  0  0  0  0  0  0  0  0  0  0
   28.9167   23.7966   17.2995 N   0  0  0  0  0  0  0  0  0  0  0  0
   30.1097   23.9663   16.6068 C   0  0  0  0  0  0  0  0  0  0  0  0
   30.9724   24.7867   16.7441 O   0  0  0  0  0  0  0  0  0  0  0  0
   30.2096   22.9057   15.5706 C   0  0  0  0  0  0  0  0  0  0  0  0
   31.0382   23.2132   14.3457 C   0  0  0  0  0  0  0  0  0  0  0  0
   31.5407   22.2219   15.3702 C   0  0  0  0  0  0  0  0  0  0  0  0
   19.9302   31.6827   21.0224 H   0  0  0  0  0  0  0  0  0  0  0  0
   18.8620   30.3893   20.4188 H   0  0  0  0  0  0  0  0  0  0  0  0
   21.1649   30.6759   19.4001 H   0  0  0  0  0  0  0  0  0  0  0  0
   20.5809   29.0273   19.7674 H   0  0  0  0  0  0  0  0  0  0  0  0
   22.4435   30.4089   22.9512 H   0  0  0  0  0  0  0  0  0  0  0  0
   22.7038   28.6684   22.7207 H   0  0  0  0  0  0  0  0  0  0  0  0
   20.4071   28.1865   22.6095 H   0  0  0  0  0  0  0  0  0  0  0  0
   20.6126   29.2900   24.0048 H   0  0  0  0  0  0  0  0  0  0  0  0
   17.5543   30.0297   21.9902 H   0  0  0  0  0  0  0  0  0  0  0  0
   18.1235   29.1105   23.4280 H   0  0  0  0  0  0  0  0  0  0  0  0
   18.4462   28.4849   21.7674 H   0  0  0  0  0  0  0  0  0  0  0  0
   22.3729   29.6327   18.3517 H   0  0  0  0  0  0  0  0  0  0  0  0
   23.3335   29.0436   16.4643 H   0  0  0  0  0  0  0  0  0  0  0  0
   26.8502   27.6249   17.2405 H   0  0  0  0  0  0  0  0  0  0  0  0
   24.3378   28.9062   14.1025 H   0  0  0  0  0  0  0  0  0  0  0  0
   28.5973   27.1726   13.6422 H   0  0  0  0  0  0  0  0  0  0  0  0
   28.5139   26.1149   15.0679 H   0  0  0  0  0  0  0  0  0  0  0  0
   29.2131   27.7452   15.2096 H   0  0  0  0  0  0  0  0  0  0  0  0
   28.8155   27.7387   19.5896 H   0  0  0  0  0  0  0  0  0  0  0  0
   29.8086   26.2631   17.9053 H   0  0  0  0  0  0  0  0  0  0  0  0
   26.8613   23.2658   18.7888 H   0  0  0  0  0  0  0  0  0  0  0  0
   25.8504   24.7635   20.4617 H   0  0  0  0  0  0  0  0  0  0  0  0
   28.3858   22.9670   17.1147 H   0  0  0  0  0  0  0  0  0  0  0  0
   29.3071   22.3202   15.4468 H   0  0  0  0  0  0  0  0  0  0  0  0
   31.5118   24.1902   14.2769 H   0  0  0  0  0  0  0  0  0  0  0  0
   30.7055   22.8609   13.3750 H   0  0  0  0  0  0  0  0  0  0  0  0
   31.5666   21.1658   15.1199 H   0  0  0  0  0  0  0  0  0  0  0  0
   32.3692   22.5016   16.0168 H   0  0  0  0  0  0  0  0  0  0  0  0
   19.5452   30.9318   22.9662 H   0  0  0  0  0  0  0  0  0  0  0  0
  1  2  1  0  0  0  0
  1  6  1  0  0  0  0
  1  7  1  0  0  0  0
  1 62  1  0  0  0  0
  2  3  1  0  0  0  0
  2 34  1  0  0  0  0
  2 35  1  0  0  0  0
  3  4  1  0  0  0  0
  3 36  1  0  0  0  0
  3 37  1  0  0  0  0
  4  5  1  0  0  0  0
  4  8  1  0  0  0  0
  5  6  1  0  0  0  0
  5 38  1  0  0  0  0
  5 39  1  0  0  0  0
  6 40  1  0  0  0  0
  6 41  1  0  0  0  0
  7 42  1  0  0  0  0
  7 43  1  0  0  0  0
  7 44  1  0  0  0  0
  8  9  2  0  0  0  0
  8 13  1  0  0  0  0
  9 10  1  0  0  0  0
  9 45  1  0  0  0  0
 10 11  2  0  0  0  0
 10 14  1  0  0  0  0
 11 12  1  0  0  0  0
 12 13  2  0  0  0  0
 12 21  1  0  0  0  0
 14 15  1  0  0  0  0
 14 46  1  0  0  0  0
 15 16  1  0  0  0  0
 15 19  2  0  0  0  0
 16 17  2  0  0  0  0
 16 47  1  0  0  0  0
 17 18  1  0  0  0  0
 17 20  1  0  0  0  0
 18 19  1  0  0  0  0
 19 48  1  0  0  0  0
 20 49  1  0  0  0  0
 20 50  1  0  0  0  0
 20 51  1  0  0  0  0
 21 22  1  0  0  0  0
 22 23  2  0  0  0  0
 22 27  1  0  0  0  0
 23 24  1  0  0  0  0
 23 52  1  0  0  0  0
 24 25  2  0  0  0  0
 24 53  1  0  0  0  0
 25 26  1  0  0  0  0
 25 28  1  0  0  0  0
 26 27  2  0  0  0  0
 26 54  1  0  0  0  0
 27 55  1  0  0  0  0
 28 29  1  0  0  0  0
 28 56  1  0  0  0  0
 29 30  2  0  0  0  0
 29 31  1  0  0  0  0
 31 32  1  0  0  0  0
 31 33  1  0  0  0  0
 31 57  1  0  0  0  0
 32 33  1  0  0  0  0
 32 58  1  0  0  0  0
 32 59  1  0  0  0  0
 33 60  1  0  0  0  0
 33 61  1  0  0  0  0
M  CHG  2   1   1  19   1
M  END
$$$$
