VZ4
 OpenBabel04091914193D

 53 56  0  0  1  0  0  0  0  0999 V2000
   -6.7485    4.1989   16.4075 C   0  0  0  0  0  0  0  0  0  0  0  0
   -0.2942    9.0375   15.1600 C   0  0  0  0  0  0  0  0  0  0  0  0
   -5.1589   -0.7043   16.1825 N   0  0  0  0  0  0  0  0  0  0  0  0
   -0.4813   11.2826   12.8970 O   0  0  0  0  0  0  0  0  0  0  0  0
   -4.5087    1.4240   17.2347 O   0  0  0  0  0  0  0  0  0  0  0  0
   -6.8220    1.1085   16.2597 O   0  0  0  0  0  0  0  0  0  0  0  0
   -3.0113    2.7886   14.2208 C   0  0  0  0  0  0  0  0  0  0  0  0
   -4.5206    5.1066   14.2478 C   0  0  0  0  0  0  0  0  0  0  0  0
   -6.5970    3.9178   14.9178 C   0  0  0  0  0  0  0  0  0  0  0  0
    1.0436    9.5078   12.2276 C   0  0  0  0  0  0  0  0  0  0  0  0
   -0.9437    4.0134   13.5533 C   0  0  0  0  0  0  0  0  0  0  0  0
    1.0282    8.0361   12.7057 C   0  0  0  0  0  0  0  0  0  0  0  0
   -0.5279    5.2497   12.7638 C   0  0  0  0  0  0  0  0  0  0  0  0
   -3.0045    7.7861   14.3748 C   0  0  0  0  0  0  0  0  0  0  0  0
   -2.4167    9.0994   13.8114 C   0  0  0  0  0  0  0  0  0  0  0  0
   -4.8562    1.4406   14.7276 O   0  0  0  0  0  0  0  0  0  0  0  0
   -0.1622   10.0964   12.9439 C   0  0  0  0  0  0  0  0  0  0  0  0
   -5.1376    3.8702   14.5499 C   0  0  0  0  0  0  0  0  0  0  0  0
   -2.4075    4.0221   13.9100 C   0  0  0  0  0  0  0  0  0  0  0  0
   -4.3657    2.7064   14.5504 C   0  0  0  0  0  0  0  0  0  0  0  0
   -3.1545    5.2116   13.9536 C   0  0  0  0  0  0  0  0  0  0  0  0
   -2.5393    6.5510   13.5565 C   0  0  2  0  0  0  0  0  0  0  0  0
   -0.9775    6.4967   13.5205 C   0  0  2  0  0  0  0  0  0  0  0  0
   -0.4690    7.7978   12.8973 C   0  0  1  0  0  0  0  0  0  0  0  0
   -0.8950    9.0247   13.7406 C   0  0  1  0  0  0  0  0  0  0  0  0
   -5.3861    0.9373   16.1884 S   0  0  0  0  0  0  0  0  0  0  0  0
   -7.8044    4.2447   16.6827 H   0  0  0  0  0  0  0  0  0  0  0  0
   -6.2731    5.1452   16.6869 H   0  0  0  0  0  0  0  0  0  0  0  0
   -6.2734    3.4329   17.0222 H   0  0  0  0  0  0  0  0  0  0  0  0
   -0.6362    9.9171   15.7124 H   0  0  0  0  0  0  0  0  0  0  0  0
    0.7983    9.0886   15.1555 H   0  0  0  0  0  0  0  0  0  0  0  0
   -0.5705    8.1511   15.7348 H   0  0  0  0  0  0  0  0  0  0  0  0
   -5.5586   -1.2116   16.9686 H   0  0  0  0  0  0  0  0  0  0  0  0
   -4.8771   -1.1707   15.3306 H   0  0  0  0  0  0  0  0  0  0  0  0
   -2.4112    1.8814   14.1957 H   0  0  0  0  0  0  0  0  0  0  0  0
   -5.1445    6.0008   14.2390 H   0  0  0  0  0  0  0  0  0  0  0  0
   -7.0885    4.7218   14.3537 H   0  0  0  0  0  0  0  0  0  0  0  0
   -7.1095    3.0003   14.6139 H   0  0  0  0  0  0  0  0  0  0  0  0
    0.8833    9.5547   11.1519 H   0  0  0  0  0  0  0  0  0  0  0  0
    1.9684   10.0158   12.5140 H   0  0  0  0  0  0  0  0  0  0  0  0
   -0.3651    3.9492   14.4833 H   0  0  0  0  0  0  0  0  0  0  0  0
   -0.7157    3.1229   12.9565 H   0  0  0  0  0  0  0  0  0  0  0  0
    1.5785    7.9240   13.6467 H   0  0  0  0  0  0  0  0  0  0  0  0
    1.5002    7.3634   11.9860 H   0  0  0  0  0  0  0  0  0  0  0  0
   -0.9823    5.2279   11.7651 H   0  0  0  0  0  0  0  0  0  0  0  0
    0.5590    5.2367   12.6300 H   0  0  0  0  0  0  0  0  0  0  0  0
   -4.0953    7.8810   14.3774 H   0  0  0  0  0  0  0  0  0  0  0  0
   -2.7150    7.6645   15.4266 H   0  0  0  0  0  0  0  0  0  0  0  0
   -2.7256    9.9436   14.4401 H   0  0  0  0  0  0  0  0  0  0  0  0
   -2.8421    9.2910   12.8176 H   0  0  0  0  0  0  0  0  0  0  0  0
   -2.8877    6.7212   12.5257 H   0  0  0  0  0  0  0  0  0  0  0  0
   -0.5937    6.4058   14.5437 H   0  0  0  0  0  0  0  0  0  0  0  0
   -0.9202    7.8679   11.8914 H   0  0  0  0  0  0  0  0  0  0  0  0
  1  9  1  0  0  0  0
  1 27  1  0  0  0  0
  1 28  1  0  0  0  0
  1 29  1  0  0  0  0
  2 30  1  0  0  0  0
  2 31  1  0  0  0  0
  2 32  1  0  0  0  0
  3 26  1  0  0  0  0
  3 33  1  0  0  0  0
  3 34  1  0  0  0  0
  4 17  2  0  0  0  0
  5 26  2  0  0  0  0
  6 26  2  0  0  0  0
  7 19  2  0  0  0  0
  7 20  1  0  0  0  0
  7 35  1  0  0  0  0
  8 18  1  0  0  0  0
  8 21  2  0  0  0  0
  8 36  1  0  0  0  0
  9 18  1  0  0  0  0
  9 37  1  0  0  0  0
  9 38  1  0  0  0  0
 10 12  1  0  0  0  0
 10 17  1  0  0  0  0
 10 39  1  0  0  0  0
 10 40  1  0  0  0  0
 11 13  1  0  0  0  0
 11 19  1  0  0  0  0
 11 41  1  0  0  0  0
 11 42  1  0  0  0  0
 12 24  1  0  0  0  0
 12 43  1  0  0  0  0
 12 44  1  0  0  0  0
 13 23  1  0  0  0  0
 13 45  1  0  0  0  0
 13 46  1  0  0  0  0
 14 15  1  0  0  0  0
 14 22  1  0  0  0  0
 14 47  1  0  0  0  0
 14 48  1  0  0  0  0
 15 25  1  0  0  0  0
 15 49  1  0  0  0  0
 15 50  1  0  0  0  0
 16 20  1  0  0  0  0
 16 26  1  0  0  0  0
 17 25  1  0  0  0  0
 18 20  2  0  0  0  0
 19 21  1  0  0  0  0
 21 22  1  0  0  0  0
 22 23  1  0  0  0  0
 22 51  1  6  0  0  0
 23 24  1  0  0  0  0
 23 52  1  1  0  0  0
 24 25  1  0  0  0  0
 24 53  1  6  0  0  0
 25  2  1  1  0  0  0
M  END
$$$$
