W9Z
 OpenBabel04091916403D

 44 48  0  0  1  0  0  0  0  0999 V2000
   23.5117   85.9101    5.1747 C   0  0  0  0  0  0  0  0  0  0  0  0
   24.8175   85.8019    4.8482 N   0  0  0  0  0  0  0  0  0  0  0  0
   23.1823   86.0505    6.5095 C   0  0  0  0  0  0  0  0  0  0  0  0
   18.5626   83.8455    6.4851 N   0  3  0  0  0  0  0  0  0  0  0  0
   21.8578   86.1611    6.9238 C   0  0  0  0  0  0  0  0  0  0  0  0
   18.5763   83.5904    5.1307 N   0  0  0  0  0  0  0  0  0  0  0  0
   20.7933   86.1662    6.0090 C   0  0  0  0  0  0  0  0  0  0  0  0
   18.3826   82.2835    1.1357 N   0  0  0  0  0  0  0  0  0  0  0  0
   19.3531   86.3068    6.5260 C   0  0  1  0  0  0  0  0  0  0  0  0
   18.0205   81.0259    1.4400 N   0  3  0  0  0  0  0  0  0  0  0  0
   18.8560   85.0254    7.1522 C   0  0  0  0  0  0  0  0  0  0  0  0
   18.2850   83.5350    8.6543 N   0  0  0  0  0  0  0  0  0  0  0  0
   18.2614   82.3644    4.8379 C   0  0  0  0  0  0  0  0  0  0  0  0
   18.2284   82.0070    3.4201 C   0  0  0  0  0  0  0  0  0  0  0  0
   18.5099   82.8710    2.3277 C   0  0  0  0  0  0  0  0  0  0  0  0
   17.9195   80.8104    2.7925 C   0  0  0  0  0  0  0  0  0  0  0  0
   18.6625   84.8371    8.4475 N   0  0  0  0  0  0  0  0  0  0  0  0
   17.7802   80.0767    0.3777 C   0  0  0  0  0  0  0  0  0  0  0  0
   17.9171   81.2873    5.8150 C   0  0  0  0  0  0  0  0  0  0  0  0
   17.9159   81.6233    7.1114 C   0  0  0  0  0  0  0  0  0  0  0  0
   18.2376   82.9458    7.4817 C   0  0  0  0  0  0  0  0  0  0  0  0
   19.3164   87.4544    7.5765 C   0  0  0  0  0  0  0  0  0  0  0  0
   21.1073   86.0222    4.6508 C   0  0  0  0  0  0  0  0  0  0  0  0
   22.4739   85.8880    4.2310 C   0  0  0  0  0  0  0  0  0  0  0  0
   22.8475   85.7402    2.8843 C   0  0  0  0  0  0  0  0  0  0  0  0
   24.1978   85.6218    2.5321 C   0  0  0  0  0  0  0  0  0  0  0  0
   25.1372   85.6624    3.5462 C   0  0  0  0  0  0  0  0  0  0  0  0
   23.9693   86.0665    7.2573 H   0  0  0  0  0  0  0  0  0  0  0  0
   21.6805   86.2449    7.9954 H   0  0  0  0  0  0  0  0  0  0  0  0
   18.6706   86.6063    5.7169 H   0  0  0  0  0  0  0  0  0  0  0  0
   18.7994   83.9134    2.3690 H   0  0  0  0  0  0  0  0  0  0  0  0
   17.6354   79.8392    3.1686 H   0  0  0  0  0  0  0  0  0  0  0  0
   17.4971   79.1143    0.8106 H   0  0  0  0  0  0  0  0  0  0  0  0
   18.6949   79.9617   -0.2114 H   0  0  0  0  0  0  0  0  0  0  0  0
   16.9697   80.4479   -0.2565 H   0  0  0  0  0  0  0  0  0  0  0  0
   17.6742   80.2839    5.4937 H   0  0  0  0  0  0  0  0  0  0  0  0
   17.6752   80.9152    7.9002 H   0  0  0  0  0  0  0  0  0  0  0  0
   19.6343   88.4061    7.1355 H   0  0  0  0  0  0  0  0  0  0  0  0
   19.9886   87.2571    8.4199 H   0  0  0  0  0  0  0  0  0  0  0  0
   18.3278   87.5908    8.0270 H   0  0  0  0  0  0  0  0  0  0  0  0
   20.3193   86.0012    3.9095 H   0  0  0  0  0  0  0  0  0  0  0  0
   22.1061   85.7097    2.0966 H   0  0  0  0  0  0  0  0  0  0  0  0
   24.5037   85.5092    1.5012 H   0  0  0  0  0  0  0  0  0  0  0  0
   26.1994   85.5836    3.3310 H   0  0  0  0  0  0  0  0  0  0  0  0
  1  2  2  0  0  0  0
  1  3  1  0  0  0  0
  1 24  1  0  0  0  0
  2 27  1  0  0  0  0
  3  5  2  0  0  0  0
  3 28  1  0  0  0  0
  4  6  2  0  0  0  0
  4 11  1  0  0  0  0
  4 21  1  0  0  0  0
  5  7  1  0  0  0  0
  5 29  1  0  0  0  0
  6 13  1  0  0  0  0
  7  9  1  0  0  0  0
  7 23  2  0  0  0  0
  8 10  1  0  0  0  0
  8 15  1  0  0  0  0
  9 11  1  0  0  0  0
  9 22  1  0  0  0  0
  9 30  1  6  0  0  0
 10 16  2  0  0  0  0
 10 18  1  0  0  0  0
 11 17  2  0  0  0  0
 12 17  1  0  0  0  0
 12 21  1  0  0  0  0
 13 14  1  0  0  0  0
 13 19  2  0  0  0  0
 14 15  2  0  0  0  0
 14 16  1  0  0  0  0
 15 31  1  0  0  0  0
 16 32  1  0  0  0  0
 18 33  1  0  0  0  0
 18 34  1  0  0  0  0
 18 35  1  0  0  0  0
 19 20  1  0  0  0  0
 19 36  1  0  0  0  0
 20 21  2  0  0  0  0
 20 37  1  0  0  0  0
 22 38  1  0  0  0  0
 22 39  1  0  0  0  0
 22 40  1  0  0  0  0
 23 24  1  0  0  0  0
 23 41  1  0  0  0  0
 24 25  2  0  0  0  0
 25 26  1  0  0  0  0
 25 42  1  0  0  0  0
 26 27  2  0  0  0  0
 26 43  1  0  0  0  0
 27 44  1  0  0  0  0
M  CHG  2   4   1  10   1
M  END
$$$$
