WHA
 OpenBabel04091916323D

 46 49  0  0  0  0  0  0  0  0999 V2000
  -26.5918   22.9307  -23.6365 C   0  0  0  0  0  0  0  0  0  0  0  0
  -26.7171   22.3271  -19.9270 C   0  0  0  0  0  0  0  0  0  0  0  0
  -27.9060   22.6583  -24.0268 C   0  0  0  0  0  0  0  0  0  0  0  0
  -28.8517   22.3218  -23.0685 C   0  0  0  0  0  0  0  0  0  0  0  0
  -24.4658   22.9997  -20.6106 C   0  0  0  0  0  0  0  0  0  0  0  0
  -28.4796   22.2324  -21.7264 C   0  0  0  0  0  0  0  0  0  0  0  0
  -27.1440   22.4571  -21.2913 C   0  0  0  0  0  0  0  0  0  0  0  0
  -26.2068   22.8286  -22.2860 C   0  0  0  0  0  0  0  0  0  0  0  0
  -24.8790   23.1080  -21.9382 C   0  0  0  0  0  0  0  0  0  0  0  0
  -25.3711   22.6048  -19.6195 C   0  0  0  0  0  0  0  0  0  0  0  0
  -25.5575   23.2939  -24.6733 C   0  0  0  0  0  0  0  0  0  0  0  0
  -23.8911   23.4706  -23.0150 C   0  0  0  0  0  0  0  0  0  0  0  0
  -24.5423   24.1217  -24.1059 O   0  0  0  0  0  0  0  0  0  0  0  0
  -24.7209   22.4301  -18.0186 Cl  0  0  0  0  0  0  0  0  0  0  0  0
  -27.6423   21.9005  -18.8685 C   0  0  0  0  0  0  0  0  0  0  0  0
  -28.1942   20.6950  -18.9864 N   0  0  0  0  0  0  0  0  0  0  0  0
  -27.8757   22.7547  -17.8737 N   0  0  0  0  0  0  0  0  0  0  0  0
  -28.7092   22.3229  -16.9431 C   0  0  0  0  0  0  0  0  0  0  0  0
  -29.0113   23.1885  -15.9165 N   0  0  0  0  0  0  0  0  0  0  0  0
  -29.2950   21.1377  -16.9471 N   0  0  0  0  0  0  0  0  0  0  0  0
  -29.0118   20.3665  -17.9941 C   0  0  0  0  0  0  0  0  0  0  0  0
  -29.8171   18.7784  -18.0404 S   0  0  0  0  0  0  0  0  0  0  0  0
  -29.6132   18.3082  -19.7974 C   0  0  0  0  0  0  0  0  0  0  0  0
  -30.5884   19.0257  -20.7318 C   0  0  0  0  0  0  0  0  0  0  0  0
  -32.0319   18.5589  -20.5536 C   0  0  0  0  0  0  0  0  0  0  0  0
  -32.9687   19.3014  -21.4817 C   0  0  0  0  0  0  0  0  0  0  0  0
  -33.5024   18.7884  -22.4533 O   0  0  0  0  0  0  0  0  0  0  0  0
  -33.1754   20.6096  -21.1581 N   0  0  0  0  0  0  0  0  0  0  0  0
  -28.1990   22.7198  -25.0704 H   0  0  0  0  0  0  0  0  0  0  0  0
  -29.8809   22.1300  -23.3638 H   0  0  0  0  0  0  0  0  0  0  0  0
  -23.4342   23.2150  -20.3445 H   0  0  0  0  0  0  0  0  0  0  0  0
  -29.2627   21.9848  -21.0115 H   0  0  0  0  0  0  0  0  0  0  0  0
  -26.0191   23.8649  -25.4864 H   0  0  0  0  0  0  0  0  0  0  0  0
  -25.1064   22.3896  -25.0996 H   0  0  0  0  0  0  0  0  0  0  0  0
  -23.3733   22.5738  -23.3750 H   0  0  0  0  0  0  0  0  0  0  0  0
  -23.1424   24.1685  -22.6265 H   0  0  0  0  0  0  0  0  0  0  0  0
  -28.3301   23.9260  -15.8046 H   0  0  0  0  0  0  0  0  0  0  0  0
  -29.3729   22.7306  -15.0930 H   0  0  0  0  0  0  0  0  0  0  0  0
  -29.7797   17.2270  -19.8632 H   0  0  0  0  0  0  0  0  0  0  0  0
  -28.5791   18.4781  -20.1147 H   0  0  0  0  0  0  0  0  0  0  0  0
  -30.2848   18.8282  -21.7681 H   0  0  0  0  0  0  0  0  0  0  0  0
  -30.5191   20.1103  -20.6028 H   0  0  0  0  0  0  0  0  0  0  0  0
  -32.3822   18.7148  -19.5267 H   0  0  0  0  0  0  0  0  0  0  0  0
  -32.1171   17.4869  -20.7648 H   0  0  0  0  0  0  0  0  0  0  0  0
  -33.8439   21.1270  -21.7138 H   0  0  0  0  0  0  0  0  0  0  0  0
  -32.8274   21.0268  -20.3059 H   0  0  0  0  0  0  0  0  0  0  0  0
  1  3  2  0  0  0  0
  1  8  1  0  0  0  0
  1 11  1  0  0  0  0
  2  7  2  0  0  0  0
  2 10  1  0  0  0  0
  2 15  1  0  0  0  0
  3  4  1  0  0  0  0
  3 29  1  0  0  0  0
  4  6  2  0  0  0  0
  4 30  1  0  0  0  0
  5  9  1  0  0  0  0
  5 10  2  0  0  0  0
  5 31  1  0  0  0  0
  6  7  1  0  0  0  0
  6 32  1  0  0  0  0
  7  8  1  0  0  0  0
  8  9  2  0  0  0  0
  9 12  1  0  0  0  0
 10 14  1  0  0  0  0
 11 13  1  0  0  0  0
 11 33  1  0  0  0  0
 11 34  1  0  0  0  0
 12 13  1  0  0  0  0
 12 35  1  0  0  0  0
 12 36  1  0  0  0  0
 15 16  2  0  0  0  0
 15 17  1  0  0  0  0
 16 21  1  0  0  0  0
 17 18  2  0  0  0  0
 18 19  1  0  0  0  0
 18 20  1  0  0  0  0
 19 37  1  0  0  0  0
 19 38  1  0  0  0  0
 20 21  2  0  0  0  0
 21 22  1  0  0  0  0
 22 23  1  0  0  0  0
 23 24  1  0  0  0  0
 23 39  1  0  0  0  0
 23 40  1  0  0  0  0
 24 25  1  0  0  0  0
 24 41  1  0  0  0  0
 24 42  1  0  0  0  0
 25 26  1  0  0  0  0
 25 43  1  0  0  0  0
 25 44  1  0  0  0  0
 26 27  2  0  0  0  0
 26 28  1  0  0  0  0
 28 45  1  0  0  0  0
 28 46  1  0  0  0  0
M  END
$$$$
