WOE
 OpenBabel04091914563D

 26 27  0  0  0  0  0  0  0  0999 V2000
   56.2585   36.2489   90.6625 C   0  0  0  0  0  0  0  0  0  0  0  0
   55.9728   35.9597   89.2981 O   0  0  0  0  0  0  0  0  0  0  0  0
   55.9748   37.0376   88.4426 C   0  0  0  0  0  0  0  0  0  0  0  0
   56.4808   38.2939   88.8156 C   0  0  0  0  0  0  0  0  0  0  0  0
   56.4766   39.3591   87.9274 C   0  0  0  0  0  0  0  0  0  0  0  0
   55.9722   39.1832   86.6453 C   0  0  0  0  0  0  0  0  0  0  0  0
   55.4783   37.9318   86.2551 C   0  0  0  0  0  0  0  0  0  0  0  0
   55.4643   36.8342   87.1379 C   0  0  0  0  0  0  0  0  0  0  0  0
   54.8996   35.5394   86.6993 C   0  0  0  0  0  0  0  0  0  0  0  0
   53.9750   34.8512   87.4525 C   0  0  0  0  0  0  0  0  0  0  0  0
   53.5538   33.6625   86.9249 C   0  0  0  0  0  0  0  0  0  0  0  0
   52.4122   32.6903   87.7709 Cl  0  0  0  0  0  0  0  0  0  0  0  0
   53.9494   33.1540   85.7551 N   0  0  0  0  0  0  0  0  0  0  0  0
   54.8236   33.8998   85.0796 C   0  0  0  0  0  0  0  0  0  0  0  0
   55.2282   33.4381   83.8594 N   0  0  0  0  0  0  0  0  0  0  0  0
   55.3014   35.0764   85.4956 N   0  0  0  0  0  0  0  0  0  0  0  0
   56.1809   35.3226   91.2398 H   0  0  0  0  0  0  0  0  0  0  0  0
   55.5327   36.9613   91.0642 H   0  0  0  0  0  0  0  0  0  0  0  0
   57.2862   36.6167   90.7772 H   0  0  0  0  0  0  0  0  0  0  0  0
   56.8953   38.4791   89.8000 H   0  0  0  0  0  0  0  0  0  0  0  0
   56.8719   40.3244   88.2360 H   0  0  0  0  0  0  0  0  0  0  0  0
   55.9628   40.0147   85.9461 H   0  0  0  0  0  0  0  0  0  0  0  0
   55.0837   37.8177   85.2438 H   0  0  0  0  0  0  0  0  0  0  0  0
   53.6154   35.2166   88.4082 H   0  0  0  0  0  0  0  0  0  0  0  0
   54.9387   32.5128   83.5937 H   0  0  0  0  0  0  0  0  0  0  0  0
   55.9665   33.9413   83.3936 H   0  0  0  0  0  0  0  0  0  0  0  0
  1  2  1  0  0  0  0
  1 17  1  0  0  0  0
  1 18  1  0  0  0  0
  1 19  1  0  0  0  0
  2  3  1  0  0  0  0
  3  4  2  0  0  0  0
  3  8  1  0  0  0  0
  4  5  1  0  0  0  0
  4 20  1  0  0  0  0
  5  6  2  0  0  0  0
  5 21  1  0  0  0  0
  6  7  1  0  0  0  0
  6 22  1  0  0  0  0
  7  8  2  0  0  0  0
  7 23  1  0  0  0  0
  8  9  1  0  0  0  0
  9 10  2  0  0  0  0
  9 16  1  0  0  0  0
 10 11  1  0  0  0  0
 10 24  1  0  0  0  0
 11 12  1  0  0  0  0
 11 13  2  0  0  0  0
 13 14  1  0  0  0  0
 14 15  1  0  0  0  0
 14 16  2  0  0  0  0
 15 25  1  0  0  0  0
 15 26  1  0  0  0  0
M  END
$$$$
