X23
 OpenBabel04091911163D

 75 78  0  0  1  0  0  0  0  0999 V2000
  -24.2012   14.0559   44.2396 C   0  0  0  0  0  0  0  0  0  0  0  0
  -23.7553   12.6440   44.5197 C   0  0  0  0  0  0  0  0  0  0  0  0
  -22.3058   12.5811   44.9388 C   0  0  2  0  0  0  0  0  0  0  0  0
  -21.4275   12.7789   43.7703 N   0  3  0  0  0  0  0  0  0  0  0  0
  -22.0929   11.1799   45.4901 C   0  0  0  0  0  0  0  0  0  0  0  0
  -21.6877   10.2619   44.8138 O   0  0  0  0  0  0  0  0  0  0  0  0
  -22.3641   11.0790   46.8080 N   0  0  0  0  0  0  0  0  0  0  0  0
  -22.3697    9.7611   47.4472 C   0  0  2  0  0  0  0  0  0  0  0  0
  -23.6394    9.7612   48.3259 C   0  0  0  0  0  0  0  0  0  0  0  0
  -24.2867   10.7880   48.4580 O   0  0  0  0  0  0  0  0  0  0  0  0
  -23.9930    8.6128   48.9388 N   0  0  0  0  0  0  0  0  0  0  0  0
  -21.0424    9.3957   48.1498 C   0  0  1  0  0  0  0  0  0  0  0  0
  -20.0902   10.5918   48.2165 C   0  0  0  0  0  0  0  0  0  0  0  0
  -19.0019   10.3597   49.1877 N   0  3  0  0  0  0  0  0  0  0  0  0
  -21.2715    8.7507   49.5248 C   0  0  0  0  0  0  0  0  0  0  0  0
  -21.9262    7.3666   49.4774 C   0  0  0  0  0  0  0  0  0  0  0  0
  -23.3312    7.3235   48.8698 C   0  0  1  0  0  0  0  0  0  0  0  0
  -24.2653    6.3911   49.6515 C   0  0  0  0  0  0  0  0  0  0  0  0
  -25.6121    7.1153   49.6521 C   0  0  0  0  0  0  0  0  0  0  0  0
  -25.2065    8.5785   49.7228 C   0  0  1  0  0  0  0  0  0  0  0  0
  -25.0235    8.9756   51.2297 C   0  0  0  0  0  0  0  0  0  0  0  0
  -23.9658    9.1144   51.7708 O   0  0  0  0  0  0  0  0  0  0  0  0
  -26.2708    9.0467   51.7842 N   0  0  0  0  0  0  0  0  0  0  0  0
  -26.7468    9.2087   53.1425 C   0  0  0  0  0  0  0  0  0  0  0  0
  -26.1638    8.3462   54.2422 C   0  0  0  0  0  0  0  0  0  0  0  0
  -26.6292    7.0122   54.3666 C   0  0  0  0  0  0  0  0  0  0  0  0
  -26.1644    6.1667   55.3748 C   0  0  0  0  0  0  0  0  0  0  0  0
  -25.2220    6.6413   56.2832 C   0  0  0  0  0  0  0  0  0  0  0  0
  -24.7563    7.9556   56.1908 C   0  0  0  0  0  0  0  0  0  0  0  0
  -25.2275    8.8038   55.1762 C   0  0  0  0  0  0  0  0  0  0  0  0
  -27.4911   10.5005   53.4027 C   0  0  0  0  0  0  0  0  0  0  0  0
  -27.4046   11.6079   52.5412 C   0  0  0  0  0  0  0  0  0  0  0  0
  -28.2231   12.7165   52.7394 C   0  0  0  0  0  0  0  0  0  0  0  0
  -29.1506   12.7168   53.7784 C   0  0  0  0  0  0  0  0  0  0  0  0
  -29.2815   11.6098   54.6166 C   0  0  0  0  0  0  0  0  0  0  0  0
  -28.4671   10.5053   54.4161 C   0  0  0  0  0  0  0  0  0  0  0  0
  -25.2546   14.0543   43.9478 H   0  0  0  0  0  0  0  0  0  0  0  0
  -23.6098   14.4860   43.4284 H   0  0  0  0  0  0  0  0  0  0  0  0
  -24.0805   14.6714   45.1361 H   0  0  0  0  0  0  0  0  0  0  0  0
  -23.8977   12.0293   43.6231 H   0  0  0  0  0  0  0  0  0  0  0  0
  -24.3730   12.2256   45.3218 H   0  0  0  0  0  0  0  0  0  0  0  0
  -22.0459   13.3439   45.6835 H   0  0  0  0  0  0  0  0  0  0  0  0
  -20.4367   12.7267   44.0356 H   0  0  0  0  0  0  0  0  0  0  0  0
  -21.5991   12.0260   43.0847 H   0  0  0  0  0  0  0  0  0  0  0  0
  -22.7329   11.8875   47.3184 H   0  0  0  0  0  0  0  0  0  0  0  0
  -22.5123    9.0161   46.6597 H   0  0  0  0  0  0  0  0  0  0  0  0
  -20.5387    8.6454   47.5220 H   0  0  0  0  0  0  0  0  0  0  0  0
  -20.6043   11.4982   48.5390 H   0  0  0  0  0  0  0  0  0  0  0  0
  -19.6045   10.7620   47.2492 H   0  0  0  0  0  0  0  0  0  0  0  0
  -18.3574   11.1599   49.2462 H   0  0  0  0  0  0  0  0  0  0  0  0
  -19.3777   10.2256   50.1369 H   0  0  0  0  0  0  0  0  0  0  0  0
  -21.8852    9.4264   50.1312 H   0  0  0  0  0  0  0  0  0  0  0  0
  -20.3173    8.6298   50.0438 H   0  0  0  0  0  0  0  0  0  0  0  0
  -21.9717    6.9864   50.5064 H   0  0  0  0  0  0  0  0  0  0  0  0
  -21.2797    6.6881   48.9074 H   0  0  0  0  0  0  0  0  0  0  0  0
  -23.2729    6.9989   47.8232 H   0  0  0  0  0  0  0  0  0  0  0  0
  -23.9079    6.2577   50.6821 H   0  0  0  0  0  0  0  0  0  0  0  0
  -24.3363    5.4068   49.1824 H   0  0  0  0  0  0  0  0  0  0  0  0
  -26.2335    6.8088   50.4955 H   0  0  0  0  0  0  0  0  0  0  0  0
  -26.1513    6.9218   48.7188 H   0  0  0  0  0  0  0  0  0  0  0  0
  -25.9749    9.2484   49.2997 H   0  0  0  0  0  0  0  0  0  0  0  0
  -27.0191    8.9765   51.1139 H   0  0  0  0  0  0  0  0  0  0  0  0
  -27.6659    8.6367   52.9878 H   0  0  0  0  0  0  0  0  0  0  0  0
  -27.3825    6.6385   53.6696 H   0  0  0  0  0  0  0  0  0  0  0  0
  -26.5321    5.1451   55.4524 H   0  0  0  0  0  0  0  0  0  0  0  0
  -24.8493    5.9880   57.0681 H   0  0  0  0  0  0  0  0  0  0  0  0
  -24.0268    8.3212   56.9101 H   0  0  0  0  0  0  0  0  0  0  0  0
  -24.8691    9.8280   55.1246 H   0  0  0  0  0  0  0  0  0  0  0  0
  -26.7104   11.5949   51.7060 H   0  0  0  0  0  0  0  0  0  0  0  0
  -28.1387   13.5854   52.0914 H   0  0  0  0  0  0  0  0  0  0  0  0
  -29.7851   13.5828   53.9371 H   0  0  0  0  0  0  0  0  0  0  0  0
  -30.0088   11.6109   55.4235 H   0  0  0  0  0  0  0  0  0  0  0  0
  -28.5963    9.6170   55.0337 H   0  0  0  0  0  0  0  0  0  0  0  0
  -21.6097   13.6821   43.3223 H   0  0  0  0  0  0  0  0  0  0  0  0
  -18.4530    9.5239   48.9456 H   0  0  0  0  0  0  0  0  0  0  0  0
  1  2  1  0  0  0  0
  1 37  1  0  0  0  0
  1 38  1  0  0  0  0
  1 39  1  0  0  0  0
  2  3  1  0  0  0  0
  2 40  1  0  0  0  0
  2 41  1  0  0  0  0
  3  4  1  0  0  0  0
  3  5  1  0  0  0  0
  3 42  1  1  0  0  0
  4 43  1  0  0  0  0
  4 44  1  0  0  0  0
  4 74  1  0  0  0  0
  5  6  2  0  0  0  0
  5  7  1  0  0  0  0
  7  8  1  0  0  0  0
  7 45  1  0  0  0  0
  8  9  1  0  0  0  0
  8 12  1  0  0  0  0
  8 46  1  6  0  0  0
  9 10  2  0  0  0  0
  9 11  1  0  0  0  0
 11 17  1  0  0  0  0
 11 20  1  0  0  0  0
 12 13  1  0  0  0  0
 12 15  1  0  0  0  0
 12 47  1  6  0  0  0
 13 14  1  0  0  0  0
 13 48  1  0  0  0  0
 13 49  1  0  0  0  0
 14 50  1  0  0  0  0
 14 51  1  0  0  0  0
 14 75  1  0  0  0  0
 15 16  1  0  0  0  0
 15 52  1  0  0  0  0
 15 53  1  0  0  0  0
 16 17  1  0  0  0  0
 16 54  1  0  0  0  0
 16 55  1  0  0  0  0
 17 18  1  0  0  0  0
 17 56  1  6  0  0  0
 18 19  1  0  0  0  0
 18 57  1  0  0  0  0
 18 58  1  0  0  0  0
 19 20  1  0  0  0  0
 19 59  1  0  0  0  0
 19 60  1  0  0  0  0
 20 21  1  0  0  0  0
 20 61  1  6  0  0  0
 21 22  2  0  0  0  0
 21 23  1  0  0  0  0
 23 24  1  0  0  0  0
 23 62  1  0  0  0  0
 24 25  1  0  0  0  0
 24 31  1  0  0  0  0
 24 63  1  0  0  0  0
 25 26  2  0  0  0  0
 25 30  1  0  0  0  0
 26 27  1  0  0  0  0
 26 64  1  0  0  0  0
 27 28  2  0  0  0  0
 27 65  1  0  0  0  0
 28 29  1  0  0  0  0
 28 66  1  0  0  0  0
 29 30  2  0  0  0  0
 29 67  1  0  0  0  0
 30 68  1  0  0  0  0
 31 32  2  0  0  0  0
 31 36  1  0  0  0  0
 32 33  1  0  0  0  0
 32 69  1  0  0  0  0
 33 34  2  0  0  0  0
 33 70  1  0  0  0  0
 34 35  1  0  0  0  0
 34 71  1  0  0  0  0
 35 36  2  0  0  0  0
 35 72  1  0  0  0  0
 36 73  1  0  0  0  0
M  CHG  2   4   1  14   1
M  END
$$$$
