XAV
 OpenBabel04091913303D

 32 34  0  0  0  0  0  0  0  0999 V2000
   37.9346  -11.1196  -12.9536 N   0  3  0  0  0  0  0  0  0  0  0  0
   38.7933  -11.7976  -12.1261 C   0  0  0  0  0  0  0  0  0  0  0  0
   39.6065  -12.6996  -12.5759 N   0  0  0  0  0  0  0  0  0  0  0  0
   39.6084  -12.9690  -13.9254 C   0  0  0  0  0  0  0  0  0  0  0  0
   38.8162  -12.3536  -14.8188 C   0  0  0  0  0  0  0  0  0  0  0  0
   37.8762  -11.3421  -14.2934 C   0  0  0  0  0  0  0  0  0  0  0  0
   37.0841  -10.7401  -15.0095 O   0  0  0  0  0  0  0  0  0  0  0  0
   39.7378  -11.3290   -5.7292 F   0  0  0  0  0  0  0  0  0  0  0  0
   39.2950   -9.2634   -6.2552 F   0  0  0  0  0  0  0  0  0  0  0  0
   37.6710  -10.6658   -5.9056 F   0  0  0  0  0  0  0  0  0  0  0  0
   38.1563  -10.3327  -10.1866 C   0  0  0  0  0  0  0  0  0  0  0  0
   39.4696  -12.3286   -9.8001 C   0  0  0  0  0  0  0  0  0  0  0  0
   38.2097  -10.0474   -8.8260 C   0  0  0  0  0  0  0  0  0  0  0  0
   39.5119  -12.0479   -8.4341 C   0  0  0  0  0  0  0  0  0  0  0  0
   40.2341  -14.7471  -15.6209 C   0  0  0  0  0  0  0  0  0  0  0  0
   40.5781  -14.0656  -14.3080 C   0  0  0  0  0  0  0  0  0  0  0  0
   38.7477  -12.5861  -16.2928 C   0  0  0  0  0  0  0  0  0  0  0  0
   40.1791  -13.5048  -16.9385 S   0  0  0  0  0  0  0  0  0  0  0  0
   38.7887  -11.4750  -10.6837 C   0  0  0  0  0  0  0  0  0  0  0  0
   38.8839  -10.8990   -7.9378 C   0  0  0  0  0  0  0  0  0  0  0  0
   38.9032  -10.5498   -6.4733 C   0  0  0  0  0  0  0  0  0  0  0  0
   37.2647  -10.4488  -12.6148 H   0  0  0  0  0  0  0  0  0  0  0  0
   37.6453   -9.6249  -10.8288 H   0  0  0  0  0  0  0  0  0  0  0  0
   39.9805  -13.2147  -10.1746 H   0  0  0  0  0  0  0  0  0  0  0  0
   37.7295   -9.1465   -8.4532 H   0  0  0  0  0  0  0  0  0  0  0  0
   40.0427  -12.7254   -7.7666 H   0  0  0  0  0  0  0  0  0  0  0  0
   39.2537  -15.2339  -15.5579 H   0  0  0  0  0  0  0  0  0  0  0  0
   40.9718  -15.5159  -15.8643 H   0  0  0  0  0  0  0  0  0  0  0  0
   40.5890  -14.8308  -13.5191 H   0  0  0  0  0  0  0  0  0  0  0  0
   41.5948  -13.6462  -14.3401 H   0  0  0  0  0  0  0  0  0  0  0  0
   38.6910  -11.6410  -16.8421 H   0  0  0  0  0  0  0  0  0  0  0  0
   37.8539  -13.1692  -16.5302 H   0  0  0  0  0  0  0  0  0  0  0  0
  1  2  1  0  0  0  0
  1  6  1  0  0  0  0
  1 22  1  0  0  0  0
  2  3  2  0  0  0  0
  2 19  1  0  0  0  0
  3  4  1  0  0  0  0
  4  5  2  0  0  0  0
  4 16  1  0  0  0  0
  5  6  1  0  0  0  0
  5 17  1  0  0  0  0
  6  7  2  0  0  0  0
  8 21  1  0  0  0  0
  9 21  1  0  0  0  0
 10 21  1  0  0  0  0
 11 13  2  0  0  0  0
 11 19  1  0  0  0  0
 11 23  1  0  0  0  0
 12 14  1  0  0  0  0
 12 19  2  0  0  0  0
 12 24  1  0  0  0  0
 13 20  1  0  0  0  0
 13 25  1  0  0  0  0
 14 20  2  0  0  0  0
 14 26  1  0  0  0  0
 15 16  1  0  0  0  0
 15 18  1  0  0  0  0
 15 27  1  0  0  0  0
 15 28  1  0  0  0  0
 16 29  1  0  0  0  0
 16 30  1  0  0  0  0
 17 18  1  0  0  0  0
 17 31  1  0  0  0  0
 17 32  1  0  0  0  0
 20 21  1  0  0  0  0
M  CHG  1   1   1
M  END
$$$$
