XNC
 OpenBabel04091912463D

 76 81  0  0  1  0  0  0  0  0999 V2000
   27.1894    6.8208   40.1603 O   0  0  0  0  0  0  0  0  0  0  0  0
   28.2558    6.4625   39.6438 C   0  0  0  0  0  0  0  0  0  0  0  0
   29.2604    5.7532   40.5166 C   0  0  0  0  0  0  0  0  0  0  0  0
   29.6401    4.4507   40.2175 C   0  0  0  0  0  0  0  0  0  0  0  0
   30.5506    3.8346   41.0733 C   0  0  0  0  0  0  0  0  0  0  0  0
   31.0487    4.5284   42.1812 C   0  0  0  0  0  0  0  0  0  0  0  0
   30.6107    5.8264   42.4170 C   0  0  0  0  0  0  0  0  0  0  0  0
   31.1338    6.5943   43.6064 C   0  0  0  0  0  0  0  0  0  0  0  0
   29.7173    6.4424   41.6022 N   0  0  0  0  0  0  0  0  0  0  0  0
   28.5125    6.5877   38.2856 N   0  0  0  0  0  0  0  0  0  0  0  0
   29.8035    6.4945   37.7057 C   0  0  0  0  0  0  0  0  0  0  0  0
   30.8244    7.3555   38.1517 C   0  0  0  0  0  0  0  0  0  0  0  0
   32.0845    7.3161   37.5588 C   0  0  0  0  0  0  0  0  0  0  0  0
   27.4054    6.9253   37.3588 C   0  0  2  0  0  0  0  0  0  0  0  0
   26.9053    5.6437   36.7318 C   0  0  0  0  0  0  0  0  0  0  0  0
   25.1645    5.5346   36.7216 S   0  0  0  0  0  0  0  0  0  0  0  0
   24.6607    6.6442   35.9221 O   0  0  0  0  0  0  0  0  0  0  0  0
   24.6985    5.4025   38.1085 O   0  0  0  0  0  0  0  0  0  0  0  0
   24.7557    4.0023   35.8896 C   0  0  0  0  0  0  0  0  0  0  0  0
   25.7688    3.5855   34.8256 C   0  0  0  0  0  0  0  0  0  0  0  0
   25.3527    2.2148   34.2389 C   0  0  0  0  0  0  0  0  0  0  0  0
   25.8328    4.6013   33.6778 C   0  0  0  0  0  0  0  0  0  0  0  0
   27.1221    3.4286   35.5267 C   0  0  0  0  0  0  0  0  0  0  0  0
   27.6878    4.6660   36.2128 C   0  0  0  0  0  0  0  0  0  0  0  0
   29.0747    4.6872   36.1528 N   0  0  0  0  0  0  0  0  0  0  0  0
   30.0354    5.5832   36.6669 C   0  0  0  0  0  0  0  0  0  0  0  0
   31.3230    5.5548   36.1033 C   0  0  0  0  0  0  0  0  0  0  0  0
   31.5876    4.6564   35.1026 O   0  0  0  0  0  0  0  0  0  0  0  0
   32.3411    6.4068   36.5416 C   0  0  0  0  0  0  0  0  0  0  0  0
   27.8181    8.0389   36.3909 C   0  0  0  0  0  0  0  0  0  0  0  0
   28.1001    9.3122   36.9027 C   0  0  0  0  0  0  0  0  0  0  0  0
   27.9486    9.5338   38.2172 F   0  0  0  0  0  0  0  0  0  0  0  0
   28.5570   10.3476   36.0831 C   0  0  0  0  0  0  0  0  0  0  0  0
   28.7532   10.1277   34.7188 C   0  0  0  0  0  0  0  0  0  0  0  0
   28.4862    8.8629   34.2001 C   0  0  0  0  0  0  0  0  0  0  0  0
   28.0252    7.8336   35.0240 C   0  0  0  0  0  0  0  0  0  0  0  0
   29.1995   11.1977   33.9840 O   0  0  0  0  0  0  0  0  0  0  0  0
   29.4204   11.0263   32.5710 C   0  0  0  0  0  0  0  0  0  0  0  0
   28.1355   10.9340   31.7839 C   0  0  0  0  0  0  0  0  0  0  0  0
   28.0303   10.0332   30.7140 C   0  0  0  0  0  0  0  0  0  0  0  0
   26.8266    9.8894   30.0272 C   0  0  0  0  0  0  0  0  0  0  0  0
   25.7274   10.6676   30.3848 C   0  0  0  0  0  0  0  0  0  0  0  0
   25.8285   11.5826   31.4311 C   0  0  0  0  0  0  0  0  0  0  0  0
   27.0288   11.7172   32.1274 C   0  0  0  0  0  0  0  0  0  0  0  0
   29.2457    3.9203   39.3547 H   0  0  0  0  0  0  0  0  0  0  0  0
   30.8739    2.8159   40.8840 H   0  0  0  0  0  0  0  0  0  0  0  0
   31.7601    4.0502   42.8474 H   0  0  0  0  0  0  0  0  0  0  0  0
   30.7042    7.6005   43.6424 H   0  0  0  0  0  0  0  0  0  0  0  0
   32.2244    6.6993   43.5633 H   0  0  0  0  0  0  0  0  0  0  0  0
   30.8781    6.0863   44.5425 H   0  0  0  0  0  0  0  0  0  0  0  0
   30.6302    8.0864   38.9362 H   0  0  0  0  0  0  0  0  0  0  0  0
   32.8733    7.9908   37.8895 H   0  0  0  0  0  0  0  0  0  0  0  0
   26.5736    7.3451   37.9416 H   0  0  0  0  0  0  0  0  0  0  0  0
   23.7597    4.0980   35.4513 H   0  0  0  0  0  0  0  0  0  0  0  0
   24.7061    3.2081   36.6511 H   0  0  0  0  0  0  0  0  0  0  0  0
   26.0452    1.8839   33.4552 H   0  0  0  0  0  0  0  0  0  0  0  0
   24.3485    2.2563   33.8010 H   0  0  0  0  0  0  0  0  0  0  0  0
   25.3408    1.4415   35.0163 H   0  0  0  0  0  0  0  0  0  0  0  0
   26.1229    5.5876   34.0372 H   0  0  0  0  0  0  0  0  0  0  0  0
   24.8600    4.7117   33.1874 H   0  0  0  0  0  0  0  0  0  0  0  0
   26.5666    4.3063   32.9202 H   0  0  0  0  0  0  0  0  0  0  0  0
   27.8473    3.0639   34.7838 H   0  0  0  0  0  0  0  0  0  0  0  0
   27.0418    2.6555   36.2992 H   0  0  0  0  0  0  0  0  0  0  0  0
   29.5347    3.9241   35.6562 H   0  0  0  0  0  0  0  0  0  0  0  0
   32.5166    4.7712   34.8442 H   0  0  0  0  0  0  0  0  0  0  0  0
   33.3282    6.3576   36.1000 H   0  0  0  0  0  0  0  0  0  0  0  0
   28.7501   11.3199   36.5235 H   0  0  0  0  0  0  0  0  0  0  0  0
   28.6155    8.6407   33.1496 H   0  0  0  0  0  0  0  0  0  0  0  0
   27.8520    6.8610   34.5780 H   0  0  0  0  0  0  0  0  0  0  0  0
   30.0636   10.1589   32.3803 H   0  0  0  0  0  0  0  0  0  0  0  0
   29.9775   11.9042   32.2128 H   0  0  0  0  0  0  0  0  0  0  0  0
   28.8819    9.4198   30.4313 H   0  0  0  0  0  0  0  0  0  0  0  0
   26.7459    9.1716   29.2167 H   0  0  0  0  0  0  0  0  0  0  0  0
   24.7904   10.5629   29.8434 H   0  0  0  0  0  0  0  0  0  0  0  0
   24.9738   12.1889   31.7146 H   0  0  0  0  0  0  0  0  0  0  0  0
   27.0962   12.4137   32.9611 H   0  0  0  0  0  0  0  0  0  0  0  0
  1  2  2  0  0  0  0
  2  3  1  0  0  0  0
  2 10  1  0  0  0  0
  3  4  2  0  0  0  0
  3  9  1  0  0  0  0
  4  5  1  0  0  0  0
  4 45  1  0  0  0  0
  5  6  2  0  0  0  0
  5 46  1  0  0  0  0
  6  7  1  0  0  0  0
  6 47  1  0  0  0  0
  7  8  1  0  0  0  0
  7  9  2  0  0  0  0
  8 48  1  0  0  0  0
  8 49  1  0  0  0  0
  8 50  1  0  0  0  0
 10 11  1  0  0  0  0
 10 14  1  0  0  0  0
 11 12  2  0  0  0  0
 11 26  1  0  0  0  0
 12 13  1  0  0  0  0
 12 51  1  0  0  0  0
 13 29  2  0  0  0  0
 13 52  1  0  0  0  0
 14 15  1  0  0  0  0
 14 30  1  0  0  0  0
 14 53  1  1  0  0  0
 15 16  1  0  0  0  0
 15 24  2  0  0  0  0
 16 17  2  0  0  0  0
 16 18  2  0  0  0  0
 16 19  1  0  0  0  0
 19 20  1  0  0  0  0
 19 54  1  0  0  0  0
 19 55  1  0  0  0  0
 20 21  1  0  0  0  0
 20 22  1  0  0  0  0
 20 23  1  0  0  0  0
 21 56  1  0  0  0  0
 21 57  1  0  0  0  0
 21 58  1  0  0  0  0
 22 59  1  0  0  0  0
 22 60  1  0  0  0  0
 22 61  1  0  0  0  0
 23 24  1  0  0  0  0
 23 62  1  0  0  0  0
 23 63  1  0  0  0  0
 24 25  1  0  0  0  0
 25 26  1  0  0  0  0
 25 64  1  0  0  0  0
 26 27  2  0  0  0  0
 27 28  1  0  0  0  0
 27 29  1  0  0  0  0
 28 65  1  0  0  0  0
 29 66  1  0  0  0  0
 30 31  2  0  0  0  0
 30 36  1  0  0  0  0
 31 32  1  0  0  0  0
 31 33  1  0  0  0  0
 33 34  2  0  0  0  0
 33 67  1  0  0  0  0
 34 35  1  0  0  0  0
 34 37  1  0  0  0  0
 35 36  2  0  0  0  0
 35 68  1  0  0  0  0
 36 69  1  0  0  0  0
 37 38  1  0  0  0  0
 38 39  1  0  0  0  0
 38 70  1  0  0  0  0
 38 71  1  0  0  0  0
 39 40  2  0  0  0  0
 39 44  1  0  0  0  0
 40 41  1  0  0  0  0
 40 72  1  0  0  0  0
 41 42  2  0  0  0  0
 41 73  1  0  0  0  0
 42 43  1  0  0  0  0
 42 74  1  0  0  0  0
 43 44  2  0  0  0  0
 43 75  1  0  0  0  0
 44 76  1  0  0  0  0
M  END
$$$$
