XRS
 OpenBabel04091916413D

 34 34  0  0  1  0  0  0  0  0999 V2000
   54.5349   -4.0773  -53.4767 C   0  0  0  0  0  0  0  0  0  0  0  0
   53.3751   -4.6379  -53.2190 N   0  0  0  0  0  0  0  0  0  0  0  0
   53.0543   -4.2528  -51.9299 C   0  0  0  0  0  0  0  0  0  0  0  0
   54.0600   -3.4544  -51.4227 C   0  0  0  0  0  0  0  0  0  0  0  0
   54.9847   -3.3489  -52.4088 N   0  3  0  0  0  0  0  0  0  0  0  0
   55.2629   -4.1482  -54.5819 O   0  0  0  0  0  0  0  0  0  0  0  0
   54.6709   -4.8669  -55.6670 C   0  0  0  0  0  0  0  0  0  0  0  0
   55.3947   -4.5060  -56.9720 C   0  0  0  0  0  0  0  0  0  0  0  0
   56.8454   -4.9996  -57.1313 C   0  0  2  0  0  0  0  0  0  0  0  0
   57.7338   -4.5349  -55.9894 N   0  3  0  0  0  0  0  0  0  0  0  0
   57.4140   -4.5732  -58.4861 C   0  0  0  0  0  0  0  0  0  0  0  0
   57.8975   -3.0486  -55.8540 C   0  0  0  0  0  0  0  0  0  0  0  0
   59.0465   -5.2615  -55.9036 C   0  0  0  0  0  0  0  0  0  0  0  0
   56.2357   -2.6164  -52.3807 C   0  0  0  0  0  0  0  0  0  0  0  0
   52.1522   -4.5411  -51.4049 H   0  0  0  0  0  0  0  0  0  0  0  0
   54.1359   -2.9895  -50.4513 H   0  0  0  0  0  0  0  0  0  0  0  0
   53.6203   -4.5817  -55.7505 H   0  0  0  0  0  0  0  0  0  0  0  0
   54.7627   -5.9322  -55.4657 H   0  0  0  0  0  0  0  0  0  0  0  0
   55.3842   -3.4164  -57.0963 H   0  0  0  0  0  0  0  0  0  0  0  0
   54.8172   -4.9456  -57.7943 H   0  0  0  0  0  0  0  0  0  0  0  0
   56.8505   -6.0933  -57.0872 H   0  0  0  0  0  0  0  0  0  0  0  0
   56.7536   -4.9242  -59.2897 H   0  0  0  0  0  0  0  0  0  0  0  0
   58.4069   -5.0038  -58.6548 H   0  0  0  0  0  0  0  0  0  0  0  0
   57.4864   -3.4839  -58.5656 H   0  0  0  0  0  0  0  0  0  0  0  0
   58.5393   -2.8491  -54.9920 H   0  0  0  0  0  0  0  0  0  0  0  0
   56.9171   -2.6014  -55.6917 H   0  0  0  0  0  0  0  0  0  0  0  0
   58.3534   -2.6560  -56.7618 H   0  0  0  0  0  0  0  0  0  0  0  0
   58.8579   -6.3323  -56.0023 H   0  0  0  0  0  0  0  0  0  0  0  0
   59.4912   -5.0498  -54.9273 H   0  0  0  0  0  0  0  0  0  0  0  0
   59.6985   -4.9029  -56.7071 H   0  0  0  0  0  0  0  0  0  0  0  0
   56.7649   -2.7226  -53.3349 H   0  0  0  0  0  0  0  0  0  0  0  0
   56.8668   -3.0184  -51.5873 H   0  0  0  0  0  0  0  0  0  0  0  0
   56.0310   -1.5594  -52.2103 H   0  0  0  0  0  0  0  0  0  0  0  0
   57.2161   -4.8176  -55.1313 H   0  0  0  0  0  0  0  0  0  0  0  0
  1  2  1  0  0  0  0
  1  5  2  0  0  0  0
  1  6  1  0  0  0  0
  2  3  1  0  0  0  0
  3  4  2  0  0  0  0
  3 15  1  0  0  0  0
  4  5  1  0  0  0  0
  4 16  1  0  0  0  0
  5 14  1  0  0  0  0
  6  7  1  0  0  0  0
  7  8  1  0  0  0  0
  7 17  1  0  0  0  0
  7 18  1  0  0  0  0
  8  9  1  0  0  0  0
  8 19  1  0  0  0  0
  8 20  1  0  0  0  0
  9 10  1  0  0  0  0
  9 11  1  0  0  0  0
  9 21  1  1  0  0  0
 10 12  1  0  0  0  0
 10 13  1  0  0  0  0
 10 34  1  0  0  0  0
 11 22  1  0  0  0  0
 11 23  1  0  0  0  0
 11 24  1  0  0  0  0
 12 25  1  0  0  0  0
 12 26  1  0  0  0  0
 12 27  1  0  0  0  0
 13 28  1  0  0  0  0
 13 29  1  0  0  0  0
 13 30  1  0  0  0  0
 14 31  1  0  0  0  0
 14 32  1  0  0  0  0
 14 33  1  0  0  0  0
M  CHG  2   5   1  10   1
M  END
$$$$
