YTB
 OpenBabel04091911333D

 22 22  0  0  1  0  0  0  0  0999 V2000
   29.4656   66.0226    7.1704 O   0  0  0  0  0  0  0  0  0  0  0  0
   30.8739   66.0330    7.3710 C   0  0  1  0  0  0  0  0  0  0  0  0
   31.6118   67.3261    6.9830 C   0  0  2  0  0  0  0  0  0  0  0  0
   31.6667   67.5219    5.5845 O   0  0  0  0  0  0  0  0  0  0  0  0
   32.9881   67.0823    7.6445 C   0  0  2  0  0  0  0  0  0  0  0  0
   33.7105   66.1013    6.8997 O   0  0  0  0  0  0  0  0  0  0  0  0
   31.1756   65.9873    8.8720 C   0  0  1  0  0  0  0  0  0  0  0  0
   30.9865   64.6234    9.4125 N   0  3  0  0  0  0  0  0  0  0  0  0
   32.6080   66.5108    9.0292 C   0  0  1  0  0  0  0  0  0  0  0  0
   33.4794   65.4701    9.4843 O   0  0  0  0  0  0  0  0  0  0  0  0
   29.0931   66.9117    7.3276 H   0  0  0  0  0  0  0  0  0  0  0  0
   31.2838   65.1702    6.8312 H   0  0  0  0  0  0  0  0  0  0  0  0
   31.1094   68.1953    7.4201 H   0  0  0  0  0  0  0  0  0  0  0  0
   32.1874   68.3235    5.3928 H   0  0  0  0  0  0  0  0  0  0  0  0
   33.5891   67.9938    7.6986 H   0  0  0  0  0  0  0  0  0  0  0  0
   34.6033   65.9949    7.2746 H   0  0  0  0  0  0  0  0  0  0  0  0
   30.4643   66.6324    9.4047 H   0  0  0  0  0  0  0  0  0  0  0  0
   31.2028   64.5837   10.4312 H   0  0  0  0  0  0  0  0  0  0  0  0
   30.0420   64.2666    9.2501 H   0  0  0  0  0  0  0  0  0  0  0  0
   32.6132   67.3085    9.7846 H   0  0  0  0  0  0  0  0  0  0  0  0
   34.3793   65.8371    9.5753 H   0  0  0  0  0  0  0  0  0  0  0  0
   31.6610   63.9914    8.9753 H   0  0  0  0  0  0  0  0  0  0  0  0
  1  2  1  0  0  0  0
  1 11  1  0  0  0  0
  2  3  1  0  0  0  0
  2  7  1  0  0  0  0
  2 12  1  6  0  0  0
  3  4  1  0  0  0  0
  3  5  1  0  0  0  0
  3 13  1  1  0  0  0
  4 14  1  0  0  0  0
  5  6  1  0  0  0  0
  5  9  1  0  0  0  0
  5 15  1  1  0  0  0
  6 16  1  0  0  0  0
  7  8  1  0  0  0  0
  7  9  1  0  0  0  0
  7 17  1  1  0  0  0
  8 18  1  0  0  0  0
  8 19  1  0  0  0  0
  8 22  1  0  0  0  0
  9 10  1  0  0  0  0
  9 20  1  1  0  0  0
 10 21  1  0  0  0  0
M  CHG  1   8   1
M  END
$$$$
