YZE
 OpenBabel04091913163D

 51 51  0  0  1  0  0  0  0  0999 V2000
   13.8068   47.1131   40.4689 C   0  0  0  0  0  0  0  0  0  0  0  0
   14.8891   46.3622   40.3073 C   0  0  0  0  0  0  0  0  0  0  0  0
   14.8985   44.8936   40.6714 C   0  0  0  0  0  0  0  0  0  0  0  0
   16.2862   44.3343   40.9918 C   0  0  1  0  0  0  0  0  0  0  0  0
   17.3114   44.4529   39.8004 C   0  0  0  0  0  0  0  0  0  0  0  0
   17.1393   43.6615   38.8487 O   0  0  0  0  0  0  0  0  0  0  0  0
   18.1805   45.3752   39.9235 O   0  0  0  0  0  0  0  0  0  0  0  0
   16.8255   44.9775   42.1827 N   0  0  0  0  0  0  0  0  0  0  0  0
   18.0689   44.5373   42.5467 C   0  0  0  0  0  0  0  0  0  0  0  0
   18.5938   45.3221   43.5256 N   0  0  0  0  0  0  0  0  0  0  0  0
   19.9381   45.0769   44.0449 C   0  0  1  0  0  0  0  0  0  0  0  0
   20.9354   45.7194   43.0585 C   0  0  0  0  0  0  0  0  0  0  0  0
   22.3698   45.1843   43.1226 C   0  0  0  0  0  0  0  0  0  0  0  0
   23.3994   45.9161   42.2249 C   0  0  0  0  0  0  0  0  0  0  0  0
   23.4920   47.4383   42.4108 C   0  0  0  0  0  0  0  0  0  0  0  0
   23.6882   47.8467   43.8115 N   0  0  0  0  0  0  0  0  0  0  0  0
   23.1191   49.0150   44.3221 C   0  0  0  0  0  0  0  0  0  0  0  0
   23.2860   49.3198   45.8208 C   0  0  0  0  0  0  0  0  0  0  0  0
   22.7357   50.4888   46.4043 C   0  0  0  0  0  0  0  0  0  0  0  0
   22.8256   50.7730   47.8122 C   0  0  0  0  0  0  0  0  0  0  0  0
   23.4823   49.8869   48.6633 C   0  0  0  0  0  0  0  0  0  0  0  0
   23.6694   50.1940   50.8256 I   0  0  0  0  0  0  0  0  0  0  0  0
   24.0431   48.7405   48.0958 C   0  0  0  0  0  0  0  0  0  0  0  0
   23.9425   48.4594   46.7043 C   0  0  0  0  0  0  0  0  0  0  0  0
   22.5359   49.7920   43.5868 O   0  0  0  0  0  0  0  0  0  0  0  0
   20.0068   45.6910   45.4760 C   0  0  0  0  0  0  0  0  0  0  0  0
   19.5422   46.8476   45.6212 O   0  0  0  0  0  0  0  0  0  0  0  0
   20.4875   44.9041   46.3535 O   0  0  0  0  0  0  0  0  0  0  0  0
   18.5801   43.5347   42.1630 O   0  0  0  0  0  0  0  0  0  0  0  0
   13.8017   48.1698   40.2051 H   0  0  0  0  0  0  0  0  0  0  0  0
   12.8877   46.6813   40.8661 H   0  0  0  0  0  0  0  0  0  0  0  0
   15.8186   46.7905   39.9082 H   0  0  0  0  0  0  0  0  0  0  0  0
   14.4664   44.3191   39.8442 H   0  0  0  0  0  0  0  0  0  0  0  0
   14.2400   44.7572   41.5487 H   0  0  0  0  0  0  0  0  0  0  0  0
   16.1681   43.2731   41.2746 H   0  0  0  0  0  0  0  0  0  0  0  0
   16.4950   45.8747   42.4812 H   0  0  0  0  0  0  0  0  0  0  0  0
   18.1110   46.1442   43.8418 H   0  0  0  0  0  0  0  0  0  0  0  0
   20.0917   43.9861   44.0975 H   0  0  0  0  0  0  0  0  0  0  0  0
   20.9454   46.7912   43.2577 H   0  0  0  0  0  0  0  0  0  0  0  0
   20.5640   45.5698   42.0346 H   0  0  0  0  0  0  0  0  0  0  0  0
   22.3545   44.1238   42.8313 H   0  0  0  0  0  0  0  0  0  0  0  0
   22.7124   45.2417   44.1585 H   0  0  0  0  0  0  0  0  0  0  0  0
   23.1690   45.7128   41.1668 H   0  0  0  0  0  0  0  0  0  0  0  0
   24.3977   45.4911   42.4176 H   0  0  0  0  0  0  0  0  0  0  0  0
   22.5923   47.9099   42.0022 H   0  0  0  0  0  0  0  0  0  0  0  0
   24.3502   47.8306   41.8381 H   0  0  0  0  0  0  0  0  0  0  0  0
   24.1505   47.2066   44.4315 H   0  0  0  0  0  0  0  0  0  0  0  0
   22.2102   51.1962   45.7614 H   0  0  0  0  0  0  0  0  0  0  0  0
   22.3640   51.6801   48.1960 H   0  0  0  0  0  0  0  0  0  0  0  0
   24.5603   48.0306   48.7251 H   0  0  0  0  0  0  0  0  0  0  0  0
   24.3840   47.5349   46.3428 H   0  0  0  0  0  0  0  0  0  0  0  0
  1  2  2  0  0  0  0
  1 30  1  0  0  0  0
  1 31  1  0  0  0  0
  2  3  1  0  0  0  0
  2 32  1  0  0  0  0
  3  4  1  0  0  0  0
  3 33  1  0  0  0  0
  3 34  1  0  0  0  0
  4  5  1  0  0  0  0
  4  8  1  0  0  0  0
  4 35  1  1  0  0  0
  5  6  2  0  0  0  0
  5  7  1  0  0  0  0
  8  9  1  0  0  0  0
  8 36  1  0  0  0  0
  9 10  1  0  0  0  0
  9 29  2  0  0  0  0
 10 11  1  0  0  0  0
 10 37  1  0  0  0  0
 11 12  1  0  0  0  0
 11 26  1  0  0  0  0
 11 38  1  1  0  0  0
 12 13  1  0  0  0  0
 12 39  1  0  0  0  0
 12 40  1  0  0  0  0
 13 14  1  0  0  0  0
 13 41  1  0  0  0  0
 13 42  1  0  0  0  0
 14 15  1  0  0  0  0
 14 43  1  0  0  0  0
 14 44  1  0  0  0  0
 15 16  1  0  0  0  0
 15 45  1  0  0  0  0
 15 46  1  0  0  0  0
 16 17  1  0  0  0  0
 16 47  1  0  0  0  0
 17 18  1  0  0  0  0
 17 25  2  0  0  0  0
 18 19  2  0  0  0  0
 18 24  1  0  0  0  0
 19 20  1  0  0  0  0
 19 48  1  0  0  0  0
 20 21  2  0  0  0  0
 20 49  1  0  0  0  0
 21 22  1  0  0  0  0
 21 23  1  0  0  0  0
 23 24  2  0  0  0  0
 23 50  1  0  0  0  0
 24 51  1  0  0  0  0
 26 27  2  0  0  0  0
 26 28  1  0  0  0  0
M  END
$$$$
