Z70
 OpenBabel04091913463D

 26 26  0  0  1  0  0  0  0  0999 V2000
  -19.5514   16.4542   -5.3002 C   0  0  2  0  0  0  0  0  0  0  0  0
  -20.9976   16.9385   -5.6302 C   0  0  0  0  0  0  0  0  0  0  0  0
  -20.2108   12.6745   -5.6357 C   0  0  1  0  0  0  0  0  0  0  0  0
  -20.2548   10.4501   -5.6608 C   0  0  1  0  0  0  0  0  0  0  0  0
  -19.3028   12.2110   -6.5637 C   0  0  0  0  0  0  0  0  0  0  0  0
  -19.3103   14.9474   -5.1703 C   0  0  0  0  0  0  0  0  0  0  0  0
  -20.5603   14.0765   -5.3195 C   0  0  0  0  0  0  0  0  0  0  0  0
  -19.0748   17.0481   -3.9951 N   0  3  0  0  0  0  0  0  0  0  0  0
  -20.7887   11.5230   -5.0973 N   0  3  0  0  0  0  0  0  0  0  0  0
  -19.3459   10.8466   -6.5265 N   0  3  0  0  0  0  0  0  0  0  0  0
  -20.5637    9.1819   -5.3832 N   0  0  0  0  0  0  0  0  0  0  0  0
  -21.4630   16.5651   -6.7275 O   0  0  0  0  0  0  0  0  0  0  0  0
  -21.4735   17.6179   -4.6712 O   0  0  0  0  0  0  0  0  0  0  0  0
  -18.8746   16.8718   -6.0571 H   0  0  0  0  0  0  0  0  0  0  0  0
  -18.6295   12.7394   -7.2178 H   0  0  0  0  0  0  0  0  0  0  0  0
  -18.8441   14.7020   -4.2044 H   0  0  0  0  0  0  0  0  0  0  0  0
  -18.5484   14.6772   -5.9123 H   0  0  0  0  0  0  0  0  0  0  0  0
  -21.1697   14.1400   -4.4132 H   0  0  0  0  0  0  0  0  0  0  0  0
  -21.1567   14.4036   -6.1694 H   0  0  0  0  0  0  0  0  0  0  0  0
  -18.1169   16.8105   -3.7476 H   0  0  0  0  0  0  0  0  0  0  0  0
  -19.2276   18.0669   -4.0588 H   0  0  0  0  0  0  0  0  0  0  0  0
  -21.5385   11.5174   -4.4201 H   0  0  0  0  0  0  0  0  0  0  0  0
  -20.0948    8.4329   -5.8494 H   0  0  0  0  0  0  0  0  0  0  0  0
  -21.2707    8.9574   -4.6992 H   0  0  0  0  0  0  0  0  0  0  0  0
  -19.7679   16.7693   -3.2846 H   0  0  0  0  0  0  0  0  0  0  0  0
  -18.7759   10.2333   -7.0944 H   0  0  0  0  0  0  0  0  0  0  0  0
  1  2  1  0  0  0  0
  1  6  1  0  0  0  0
  1  8  1  0  0  0  0
  1 14  1  6  0  0  0
  2 12  2  0  0  0  0
  2 13  1  0  0  0  0
  3  5  1  0  0  0  0
  3  7  1  6  0  0  0
  3  9  1  0  0  0  0
  4  9  1  0  0  0  0
  4 10  1  0  0  0  0
  4 11  1  1  0  0  0
  5 10  1  0  0  0  0
  5 15  1  0  0  0  0
  6  7  1  0  0  0  0
  6 16  1  0  0  0  0
  6 17  1  0  0  0  0
  7 18  1  0  0  0  0
  7 19  1  0  0  0  0
  8 20  1  0  0  0  0
  8 21  1  0  0  0  0
  8 25  1  0  0  0  0
  9 22  1  0  0  0  0
 10 26  1  0  0  0  0
 11 23  1  0  0  0  0
 11 24  1  0  0  0  0
M  CHG  3   8   1   9   1  10   1
M  END
$$$$
