Z74
 OpenBabel04091913383D

 89 92  0  0  1  0  0  0  0  0999 V2000
   26.8482   15.4866   24.2782 C   0  0  0  0  0  0  0  0  0  0  0  0
   26.8541   10.8770   18.8962 F   0  0  0  0  0  0  0  0  0  0  0  0
   23.5837   11.7031   23.4503 N   0  0  0  0  0  0  0  0  0  0  0  0
   18.1305   13.6574   24.2714 O   0  0  0  0  0  0  0  0  0  0  0  0
   17.7655   12.8225   25.3908 S   0  0  0  0  0  0  0  0  0  0  0  0
   26.9887   14.3032   23.5439 C   0  0  0  0  0  0  0  0  0  0  0  0
   22.8844   13.3523   18.3712 F   0  0  0  0  0  0  0  0  0  0  0  0
   28.6639   13.4803   21.8756 N   0  0  0  0  0  0  0  0  0  0  0  0
   17.1390   13.3553   26.5787 O   0  0  0  0  0  0  0  0  0  0  0  0
   25.8736   13.4961   23.2914 C   0  0  0  0  0  0  0  0  0  0  0  0
   19.1910   11.9993   25.9068 N   0  0  0  0  0  0  0  0  0  0  0  0
   29.1321   13.7125   24.1361 O   0  0  0  0  0  0  0  0  0  0  0  0
   24.6053   13.9028   23.7363 C   0  0  0  0  0  0  0  0  0  0  0  0
   21.0383    9.8525   26.4507 N   0  3  0  0  0  0  0  0  0  0  0  0
   22.2716   13.5610   23.4501 O   0  0  0  0  0  0  0  0  0  0  0  0
   24.4625   15.1189   24.4175 C   0  0  0  0  0  0  0  0  0  0  0  0
   21.1101    8.8990   23.8343 O   0  0  0  0  0  0  0  0  0  0  0  0
   25.5829   15.9122   24.7062 C   0  0  0  0  0  0  0  0  0  0  0  0
   23.3856   13.0704   23.5154 C   0  0  0  0  0  0  0  0  0  0  0  0
   28.3509   13.8329   23.1939 C   0  0  0  0  0  0  0  0  0  0  0  0
   29.9292   12.7591   21.6490 C   0  0  0  0  0  0  0  0  0  0  0  0
   27.9029   13.9103   20.6909 C   0  0  0  0  0  0  0  0  0  0  0  0
   28.5969   14.9799   19.8386 C   0  0  0  0  0  0  0  0  0  0  0  0
   28.7004   16.3225   20.5420 C   0  0  0  0  0  0  0  0  0  0  0  0
   29.7349   11.3584   21.0565 C   0  0  0  0  0  0  0  0  0  0  0  0
   28.9123   10.4446   21.9532 C   0  0  0  0  0  0  0  0  0  0  0  0
   25.4229   17.1967   25.4678 C   0  0  0  0  0  0  0  0  0  0  0  0
   22.5350   10.7849   22.9916 C   0  0  2  0  0  0  0  0  0  0  0  0
   22.0337    9.9396   24.1901 C   0  0  1  0  0  0  0  0  0  0  0  0
   21.3383   10.8018   25.2822 C   0  0  1  0  0  0  0  0  0  0  0  0
   23.0852    9.9039   21.8448 C   0  0  0  0  0  0  0  0  0  0  0  0
   23.7065   10.6860   20.7095 C   0  0  0  0  0  0  0  0  0  0  0  0
   22.9877   11.6822   20.0320 C   0  0  0  0  0  0  0  0  0  0  0  0
   23.5844   12.3965   18.9942 C   0  0  0  0  0  0  0  0  0  0  0  0
   24.8873   12.1367   18.5991 C   0  0  0  0  0  0  0  0  0  0  0  0
   25.5922   11.1410   19.2568 C   0  0  0  0  0  0  0  0  0  0  0  0
   25.0204   10.4163   20.3016 C   0  0  0  0  0  0  0  0  0  0  0  0
   19.9974   11.4094   24.7962 C   0  0  0  0  0  0  0  0  0  0  0  0
   19.0229   11.1504   27.1189 C   0  0  0  0  0  0  0  0  0  0  0  0
   20.3487   10.5427   27.5864 C   0  0  0  0  0  0  0  0  0  0  0  0
   16.7218   11.5081   24.7710 C   0  0  0  0  0  0  0  0  0  0  0  0
   16.6781   11.2376   23.3981 C   0  0  0  0  0  0  0  0  0  0  0  0
   15.8468   10.2231   22.9220 C   0  0  0  0  0  0  0  0  0  0  0  0
   15.0553    9.4916   23.8089 C   0  0  0  0  0  0  0  0  0  0  0  0
   15.0769    9.7844   25.1742 C   0  0  0  0  0  0  0  0  0  0  0  0
   15.8999   10.8025   25.6563 C   0  0  0  0  0  0  0  0  0  0  0  0
   27.7356   16.0705   24.5206 H   0  0  0  0  0  0  0  0  0  0  0  0
   24.5166   11.3374   23.6082 H   0  0  0  0  0  0  0  0  0  0  0  0
   26.0140   12.5666   22.7509 H   0  0  0  0  0  0  0  0  0  0  0  0
   20.4655    9.0812   26.0700 H   0  0  0  0  0  0  0  0  0  0  0  0
   23.4735   15.4469   24.7421 H   0  0  0  0  0  0  0  0  0  0  0  0
   21.4997    8.3284   23.1434 H   0  0  0  0  0  0  0  0  0  0  0  0
   30.4889   12.6607   22.5856 H   0  0  0  0  0  0  0  0  0  0  0  0
   30.5591   13.3582   20.9842 H   0  0  0  0  0  0  0  0  0  0  0  0
   26.9185   14.2852   20.9777 H   0  0  0  0  0  0  0  0  0  0  0  0
   27.7326   13.0246   20.0741 H   0  0  0  0  0  0  0  0  0  0  0  0
   28.0188   15.1157   18.9164 H   0  0  0  0  0  0  0  0  0  0  0  0
   29.5946   14.6532   19.5284 H   0  0  0  0  0  0  0  0  0  0  0  0
   29.1822   17.0547   19.8850 H   0  0  0  0  0  0  0  0  0  0  0  0
   29.2941   16.2497   21.4574 H   0  0  0  0  0  0  0  0  0  0  0  0
   27.7075   16.7046   20.7994 H   0  0  0  0  0  0  0  0  0  0  0  0
   30.7197   10.9022   20.8986 H   0  0  0  0  0  0  0  0  0  0  0  0
   29.2611   11.4191   20.0713 H   0  0  0  0  0  0  0  0  0  0  0  0
   28.8039    9.4591   21.4891 H   0  0  0  0  0  0  0  0  0  0  0  0
   27.9084   10.8453   22.1207 H   0  0  0  0  0  0  0  0  0  0  0  0
   29.3971   10.3102   22.9254 H   0  0  0  0  0  0  0  0  0  0  0  0
   26.3863   17.6955   25.6185 H   0  0  0  0  0  0  0  0  0  0  0  0
   24.9885   17.0052   26.4549 H   0  0  0  0  0  0  0  0  0  0  0  0
   24.7732   17.8827   24.9155 H   0  0  0  0  0  0  0  0  0  0  0  0
   21.6936   11.3590   22.5857 H   0  0  0  0  0  0  0  0  0  0  0  0
   22.8972    9.4345   24.6421 H   0  0  0  0  0  0  0  0  0  0  0  0
   22.0088   11.5659   25.6886 H   0  0  0  0  0  0  0  0  0  0  0  0
   22.2878    9.2821   21.4211 H   0  0  0  0  0  0  0  0  0  0  0  0
   23.8332    9.2157   22.2604 H   0  0  0  0  0  0  0  0  0  0  0  0
   21.9625   11.9292   20.2968 H   0  0  0  0  0  0  0  0  0  0  0  0
   25.3411   12.6975   17.7909 H   0  0  0  0  0  0  0  0  0  0  0  0
   25.6195    9.6463   20.7808 H   0  0  0  0  0  0  0  0  0  0  0  0
   20.2153   12.1942   24.0681 H   0  0  0  0  0  0  0  0  0  0  0  0
   19.3966   10.6398   24.3022 H   0  0  0  0  0  0  0  0  0  0  0  0
   18.3222   10.3411   26.9106 H   0  0  0  0  0  0  0  0  0  0  0  0
   18.6289   11.7599   27.9398 H   0  0  0  0  0  0  0  0  0  0  0  0
   21.0419   11.3001   27.9660 H   0  0  0  0  0  0  0  0  0  0  0  0
   20.1812    9.7877   28.3600 H   0  0  0  0  0  0  0  0  0  0  0  0
   17.2637   11.8234   22.6908 H   0  0  0  0  0  0  0  0  0  0  0  0
   15.7918   10.0136   21.8550 H   0  0  0  0  0  0  0  0  0  0  0  0
   14.3923    8.7134   23.4320 H   0  0  0  0  0  0  0  0  0  0  0  0
   14.4299    9.2359   25.8539 H   0  0  0  0  0  0  0  0  0  0  0  0
   15.8759   11.0508   26.7152 H   0  0  0  0  0  0  0  0  0  0  0  0
   21.9085    9.4244   26.7885 H   0  0  0  0  0  0  0  0  0  0  0  0
  1  6  2  0  0  0  0
  1 18  1  0  0  0  0
  1 47  1  0  0  0  0
  2 36  1  0  0  0  0
  3 19  1  0  0  0  0
  3 28  1  0  0  0  0
  3 48  1  0  0  0  0
  4  5  2  0  0  0  0
  5  9  2  0  0  0  0
  5 11  1  0  0  0  0
  5 41  1  0  0  0  0
  6 10  1  0  0  0  0
  6 20  1  0  0  0  0
  7 34  1  0  0  0  0
  8 20  1  0  0  0  0
  8 21  1  0  0  0  0
  8 22  1  0  0  0  0
 10 13  2  0  0  0  0
 10 49  1  0  0  0  0
 11 38  1  0  0  0  0
 11 39  1  0  0  0  0
 12 20  2  0  0  0  0
 13 16  1  0  0  0  0
 13 19  1  0  0  0  0
 14 30  1  0  0  0  0
 14 40  1  0  0  0  0
 14 50  1  0  0  0  0
 14 89  1  0  0  0  0
 15 19  2  0  0  0  0
 16 18  2  0  0  0  0
 16 51  1  0  0  0  0
 17 29  1  0  0  0  0
 17 52  1  0  0  0  0
 18 27  1  0  0  0  0
 21 25  1  0  0  0  0
 21 53  1  0  0  0  0
 21 54  1  0  0  0  0
 22 23  1  0  0  0  0
 22 55  1  0  0  0  0
 22 56  1  0  0  0  0
 23 24  1  0  0  0  0
 23 57  1  0  0  0  0
 23 58  1  0  0  0  0
 24 59  1  0  0  0  0
 24 60  1  0  0  0  0
 24 61  1  0  0  0  0
 25 26  1  0  0  0  0
 25 62  1  0  0  0  0
 25 63  1  0  0  0  0
 26 64  1  0  0  0  0
 26 65  1  0  0  0  0
 26 66  1  0  0  0  0
 27 67  1  0  0  0  0
 27 68  1  0  0  0  0
 27 69  1  0  0  0  0
 28 29  1  0  0  0  0
 28 31  1  0  0  0  0
 28 70  1  6  0  0  0
 29 30  1  0  0  0  0
 29 71  1  1  0  0  0
 30 38  1  0  0  0  0
 30 72  1  1  0  0  0
 31 32  1  0  0  0  0
 31 73  1  0  0  0  0
 31 74  1  0  0  0  0
 32 33  2  0  0  0  0
 32 37  1  0  0  0  0
 33 34  1  0  0  0  0
 33 75  1  0  0  0  0
 34 35  2  0  0  0  0
 35 36  1  0  0  0  0
 35 76  1  0  0  0  0
 36 37  2  0  0  0  0
 37 77  1  0  0  0  0
 38 78  1  0  0  0  0
 38 79  1  0  0  0  0
 39 40  1  0  0  0  0
 39 80  1  0  0  0  0
 39 81  1  0  0  0  0
 40 82  1  0  0  0  0
 40 83  1  0  0  0  0
 41 42  2  0  0  0  0
 41 46  1  0  0  0  0
 42 43  1  0  0  0  0
 42 84  1  0  0  0  0
 43 44  2  0  0  0  0
 43 85  1  0  0  0  0
 44 45  1  0  0  0  0
 44 86  1  0  0  0  0
 45 46  2  0  0  0  0
 45 87  1  0  0  0  0
 46 88  1  0  0  0  0
M  CHG  1  14   1
M  END
$$$$
