Z76
 OpenBabel04091913383D

 91 95  0  0  1  0  0  0  0  0999 V2000
   26.8008   15.4181   24.4653 C   0  0  0  0  0  0  0  0  0  0  0  0
   26.7763   10.9621   18.7698 F   0  0  0  0  0  0  0  0  0  0  0  0
   28.5282   13.7717   21.9129 N   0  0  0  0  0  0  0  0  0  0  0  0
   29.1688   13.6850   24.1343 O   0  0  0  0  0  0  0  0  0  0  0  0
   17.8485   12.9055   25.2781 S   0  0  0  0  0  0  0  0  0  0  0  0
   26.9622   14.2570   23.7126 C   0  0  0  0  0  0  0  0  0  0  0  0
   22.7113   13.2684   18.1640 F   0  0  0  0  0  0  0  0  0  0  0  0
   23.6092   11.7215   23.2875 N   0  0  0  0  0  0  0  0  0  0  0  0
   22.2823   13.5727   23.2462 O   0  0  0  0  0  0  0  0  0  0  0  0
   25.8553   13.4865   23.3582 C   0  0  0  0  0  0  0  0  0  0  0  0
   21.1901    9.9796   26.3574 N   0  3  0  0  0  0  0  0  0  0  0  0
   21.1482    8.9550   23.6970 O   0  0  0  0  0  0  0  0  0  0  0  0
   24.5762   13.8915   23.7448 C   0  0  0  0  0  0  0  0  0  0  0  0
   19.2730   12.0584   25.7605 N   0  0  0  0  0  0  0  0  0  0  0  0
   24.4034   15.0585   24.4961 C   0  0  0  0  0  0  0  0  0  0  0  0
   29.2904   11.1853   22.5533 O   0  0  0  0  0  0  0  0  0  0  0  0
   25.5189   15.8248   24.8605 C   0  0  0  0  0  0  0  0  0  0  0  0
   17.2954   13.4913   26.4760 O   0  0  0  0  0  0  0  0  0  0  0  0
   28.3200   13.8639   23.2759 C   0  0  0  0  0  0  0  0  0  0  0  0
   18.1900   13.6891   24.1145 O   0  0  0  0  0  0  0  0  0  0  0  0
   29.7889   13.2747   21.3875 C   0  0  2  0  0  0  0  0  0  0  0  0
   27.5759   13.9956   20.8443 C   0  0  0  0  0  0  0  0  0  0  0  0
   28.4104   14.2261   19.6006 C   0  0  0  0  0  0  0  0  0  0  0  0
   29.8522   13.8893   19.9874 C   0  0  0  0  0  0  0  0  0  0  0  0
   29.7982   11.7351   21.3339 C   0  0  0  0  0  0  0  0  0  0  0  0
   25.3406   17.0757   25.6660 C   0  0  0  0  0  0  0  0  0  0  0  0
   23.3906   13.0809   23.3802 C   0  0  0  0  0  0  0  0  0  0  0  0
   22.5497   10.8207   22.8574 C   0  0  2  0  0  0  0  0  0  0  0  0
   22.0765    9.9829   24.0576 C   0  0  1  0  0  0  0  0  0  0  0  0
   23.0336    9.9217   21.7117 C   0  0  0  0  0  0  0  0  0  0  0  0
   23.6270   10.6894   20.5611 C   0  0  0  0  0  0  0  0  0  0  0  0
   24.9538   10.4634   20.1763 C   0  0  0  0  0  0  0  0  0  0  0  0
   25.5010   11.1810   19.1157 C   0  0  0  0  0  0  0  0  0  0  0  0
   24.7577   12.1310   18.4298 C   0  0  0  0  0  0  0  0  0  0  0  0
   23.4436   12.3548   18.8140 C   0  0  0  0  0  0  0  0  0  0  0  0
   22.8712   11.6450   19.8657 C   0  0  0  0  0  0  0  0  0  0  0  0
   20.0222   11.4030   24.6530 C   0  0  0  0  0  0  0  0  0  0  0  0
   19.1359   11.2029   26.9686 C   0  0  0  0  0  0  0  0  0  0  0  0
   20.5163   10.7479   27.4541 C   0  0  0  0  0  0  0  0  0  0  0  0
   21.4016   10.8668   25.1287 C   0  0  1  0  0  0  0  0  0  0  0  0
   15.6282    9.8972   21.5423 C   0  0  0  0  0  0  0  0  0  0  0  0
   29.5663    9.8042   22.6657 C   0  0  0  0  0  0  0  0  0  0  0  0
   15.9557   10.9167   25.7107 C   0  0  0  0  0  0  0  0  0  0  0  0
   15.0867    9.8967   25.3258 C   0  0  0  0  0  0  0  0  0  0  0  0
   14.9931    9.5685   23.9666 C   0  0  0  0  0  0  0  0  0  0  0  0
   15.7508   10.2557   22.9944 C   0  0  0  0  0  0  0  0  0  0  0  0
   16.6223   11.2806   23.4018 C   0  0  0  0  0  0  0  0  0  0  0  0
   16.7415   11.5938   24.7584 C   0  0  0  0  0  0  0  0  0  0  0  0
   27.6770   16.0114   24.7219 H   0  0  0  0  0  0  0  0  0  0  0  0
   24.5395   11.3501   23.4328 H   0  0  0  0  0  0  0  0  0  0  0  0
   26.0085   12.5979   22.7556 H   0  0  0  0  0  0  0  0  0  0  0  0
   22.0890    9.6071   26.6868 H   0  0  0  0  0  0  0  0  0  0  0  0
   21.5398    8.3947   22.9985 H   0  0  0  0  0  0  0  0  0  0  0  0
   23.4043   15.3673   24.8064 H   0  0  0  0  0  0  0  0  0  0  0  0
   30.6217   13.6193   22.0135 H   0  0  0  0  0  0  0  0  0  0  0  0
   26.9246   14.8406   21.0737 H   0  0  0  0  0  0  0  0  0  0  0  0
   26.9626   13.0960   20.7177 H   0  0  0  0  0  0  0  0  0  0  0  0
   28.3233   15.2718   19.2853 H   0  0  0  0  0  0  0  0  0  0  0  0
   28.0627   13.6066   18.7673 H   0  0  0  0  0  0  0  0  0  0  0  0
   30.3108   13.2179   19.2560 H   0  0  0  0  0  0  0  0  0  0  0  0
   30.4366   14.8171   20.0075 H   0  0  0  0  0  0  0  0  0  0  0  0
   29.1528   11.3896   20.5194 H   0  0  0  0  0  0  0  0  0  0  0  0
   30.8189   11.3768   21.1517 H   0  0  0  0  0  0  0  0  0  0  0  0
   26.3030   17.5624   25.8525 H   0  0  0  0  0  0  0  0  0  0  0  0
   24.8883   16.8354   26.6330 H   0  0  0  0  0  0  0  0  0  0  0  0
   24.7014   17.7820   25.1285 H   0  0  0  0  0  0  0  0  0  0  0  0
   21.7079   11.4082   22.4793 H   0  0  0  0  0  0  0  0  0  0  0  0
   22.9411    9.4766   24.5072 H   0  0  0  0  0  0  0  0  0  0  0  0
   22.1949    9.3325   21.3247 H   0  0  0  0  0  0  0  0  0  0  0  0
   23.7676    9.2098   22.1094 H   0  0  0  0  0  0  0  0  0  0  0  0
   25.5730    9.7353   20.6939 H   0  0  0  0  0  0  0  0  0  0  0  0
   25.1920   12.6873   17.6075 H   0  0  0  0  0  0  0  0  0  0  0  0
   21.8384   11.8575   20.1366 H   0  0  0  0  0  0  0  0  0  0  0  0
   20.1856   12.1197   23.8489 H   0  0  0  0  0  0  0  0  0  0  0  0
   19.4146   10.5728   24.2817 H   0  0  0  0  0  0  0  0  0  0  0  0
   18.5455   10.3179   26.7119 H   0  0  0  0  0  0  0  0  0  0  0  0
   18.6536   11.7511   27.7791 H   0  0  0  0  0  0  0  0  0  0  0  0
   21.1707   11.5929   27.6943 H   0  0  0  0  0  0  0  0  0  0  0  0
   20.4412   10.0766   28.3127 H   0  0  0  0  0  0  0  0  0  0  0  0
   22.0541   11.6759   25.4718 H   0  0  0  0  0  0  0  0  0  0  0  0
   14.9129    9.0813   21.3939 H   0  0  0  0  0  0  0  0  0  0  0  0
   16.5974    9.5693   21.1567 H   0  0  0  0  0  0  0  0  0  0  0  0
   15.2788   10.7600   20.9655 H   0  0  0  0  0  0  0  0  0  0  0  0
   29.1528    9.4466   23.6124 H   0  0  0  0  0  0  0  0  0  0  0  0
   30.6463    9.6374   22.6677 H   0  0  0  0  0  0  0  0  0  0  0  0
   29.0931    9.2630   21.8428 H   0  0  0  0  0  0  0  0  0  0  0  0
   16.0097   11.1926   26.7605 H   0  0  0  0  0  0  0  0  0  0  0  0
   14.4702    9.3626   26.0512 H   0  0  0  0  0  0  0  0  0  0  0  0
   14.3079    8.7763   23.6498 H   0  0  0  0  0  0  0  0  0  0  0  0
   17.1946   11.8253   22.6518 H   0  0  0  0  0  0  0  0  0  0  0  0
   20.6232    9.1673   26.0641 H   0  0  0  0  0  0  0  0  0  0  0  0
  1  6  2  0  0  0  0
  1 17  1  0  0  0  0
  1 49  1  0  0  0  0
  2 33  1  0  0  0  0
  3 19  1  0  0  0  0
  3 21  1  0  0  0  0
  3 22  1  0  0  0  0
  4 19  2  0  0  0  0
  5 14  1  0  0  0  0
  5 18  2  0  0  0  0
  5 20  2  0  0  0  0
  5 48  1  0  0  0  0
  6 10  1  0  0  0  0
  6 19  1  0  0  0  0
  7 35  1  0  0  0  0
  8 27  1  0  0  0  0
  8 28  1  0  0  0  0
  8 50  1  0  0  0  0
  9 27  2  0  0  0  0
 10 13  2  0  0  0  0
 10 51  1  0  0  0  0
 11 39  1  0  0  0  0
 11 40  1  0  0  0  0
 11 52  1  0  0  0  0
 11 91  1  0  0  0  0
 12 29  1  0  0  0  0
 12 53  1  0  0  0  0
 13 15  1  0  0  0  0
 13 27  1  0  0  0  0
 14 37  1  0  0  0  0
 14 38  1  0  0  0  0
 15 17  2  0  0  0  0
 15 54  1  0  0  0  0
 16 25  1  0  0  0  0
 16 42  1  0  0  0  0
 17 26  1  0  0  0  0
 21 24  1  0  0  0  0
 21 25  1  0  0  0  0
 21 55  1  1  0  0  0
 22 23  1  0  0  0  0
 22 56  1  0  0  0  0
 22 57  1  0  0  0  0
 23 24  1  0  0  0  0
 23 58  1  0  0  0  0
 23 59  1  0  0  0  0
 24 60  1  0  0  0  0
 24 61  1  0  0  0  0
 25 62  1  0  0  0  0
 25 63  1  0  0  0  0
 26 64  1  0  0  0  0
 26 65  1  0  0  0  0
 26 66  1  0  0  0  0
 28 29  1  0  0  0  0
 28 30  1  0  0  0  0
 28 67  1  6  0  0  0
 29 40  1  0  0  0  0
 29 68  1  1  0  0  0
 30 31  1  0  0  0  0
 30 69  1  0  0  0  0
 30 70  1  0  0  0  0
 31 32  2  0  0  0  0
 31 36  1  0  0  0  0
 32 33  1  0  0  0  0
 32 71  1  0  0  0  0
 33 34  2  0  0  0  0
 34 35  1  0  0  0  0
 34 72  1  0  0  0  0
 35 36  2  0  0  0  0
 36 73  1  0  0  0  0
 37 40  1  0  0  0  0
 37 74  1  0  0  0  0
 37 75  1  0  0  0  0
 38 39  1  0  0  0  0
 38 76  1  0  0  0  0
 38 77  1  0  0  0  0
 39 78  1  0  0  0  0
 39 79  1  0  0  0  0
 40 80  1  1  0  0  0
 41 46  1  0  0  0  0
 41 81  1  0  0  0  0
 41 82  1  0  0  0  0
 41 83  1  0  0  0  0
 42 84  1  0  0  0  0
 42 85  1  0  0  0  0
 42 86  1  0  0  0  0
 43 44  2  0  0  0  0
 43 48  1  0  0  0  0
 43 87  1  0  0  0  0
 44 45  1  0  0  0  0
 44 88  1  0  0  0  0
 45 46  2  0  0  0  0
 45 89  1  0  0  0  0
 46 47  1  0  0  0  0
 47 48  2  0  0  0  0
 47 90  1  0  0  0  0
M  CHG  1  11   1
M  END
$$$$
