ZG1
 OpenBabel04091914113D

 59 63  0  0  0  0  0  0  0  0999 V2000
   41.0669   45.3354   63.2395 C   0  0  0  0  0  0  0  0  0  0  0  0
   41.7206   46.6948   63.1903 C   0  0  0  0  0  0  0  0  0  0  0  0
   43.1524   46.5708   62.9519 N   0  3  0  0  0  0  0  0  0  0  0  0
   43.6405   46.1831   61.7602 N   0  0  0  0  0  0  0  0  0  0  0  0
   44.9723   46.1613   61.9358 C   0  0  0  0  0  0  0  0  0  0  0  0
   45.3554   46.5163   63.2508 C   0  0  0  0  0  0  0  0  0  0  0  0
   46.5516   46.6803   64.0144 C   0  0  0  0  0  0  0  0  0  0  0  0
   47.8223   46.5087   63.5238 N   0  0  0  0  0  0  0  0  0  0  0  0
   48.2093   46.0051   62.2301 C   0  0  0  0  0  0  0  0  0  0  0  0
   49.3145   44.9839   62.4364 C   0  0  0  0  0  0  0  0  0  0  0  0
   49.7793   44.4761   61.0967 C   0  0  0  0  0  0  0  0  0  0  0  0
   50.2290   45.5866   60.3182 O   0  0  0  0  0  0  0  0  0  0  0  0
   49.1562   46.4819   60.0107 C   0  0  0  0  0  0  0  0  0  0  0  0
   48.6366   47.1236   61.2886 C   0  0  0  0  0  0  0  0  0  0  0  0
   46.3805   47.0912   65.3798 C   0  0  0  0  0  0  0  0  0  0  0  0
   45.1323   47.3130   65.8956 C   0  0  0  0  0  0  0  0  0  0  0  0
   44.0155   47.1473   65.1484 N   0  3  0  0  0  0  0  0  0  0  0  0
   44.1448   46.7659   63.8654 C   0  0  0  0  0  0  0  0  0  0  0  0
   47.5422   47.3242   66.1913 C   0  0  0  0  0  0  0  0  0  0  0  0
   47.5101   47.6274   67.5445 O   0  0  0  0  0  0  0  0  0  0  0  0
   48.8532   47.8056   67.9605 N   0  0  0  0  0  0  0  0  0  0  0  0
   49.5660   47.6027   66.8578 C   0  0  0  0  0  0  0  0  0  0  0  0
   51.0496   47.6376   66.7853 C   0  0  0  0  0  0  0  0  0  0  0  0
   48.7994   47.3118   65.7563 N   0  0  0  0  0  0  0  0  0  0  0  0
   52.1599   45.8034   65.5921 N   0  0  0  0  0  0  0  0  0  0  0  0
   51.5548   46.2011   66.7713 C   0  0  0  0  0  0  0  0  0  0  0  0
   52.3677   46.6752   64.4511 C   0  0  0  0  0  0  0  0  0  0  0  0
   52.6676   44.4565   65.3848 C   0  0  0  0  0  0  0  0  0  0  0  0
   51.3841   45.4414   67.7206 O   0  0  0  0  0  0  0  0  0  0  0  0
   53.1067   45.8515   63.4270 C   0  0  0  0  0  0  0  0  0  0  0  0
   53.4923   44.5470   64.1134 C   0  0  0  0  0  0  0  0  0  0  0  0
   39.9922   45.4325   63.4151 H   0  0  0  0  0  0  0  0  0  0  0  0
   41.5074   44.7357   64.0424 H   0  0  0  0  0  0  0  0  0  0  0  0
   41.2272   44.8205   62.2887 H   0  0  0  0  0  0  0  0  0  0  0  0
   41.5505   47.2159   64.1483 H   0  0  0  0  0  0  0  0  0  0  0  0
   41.2814   47.3091   62.3965 H   0  0  0  0  0  0  0  0  0  0  0  0
   45.6133   45.8911   61.1017 H   0  0  0  0  0  0  0  0  0  0  0  0
   48.6036   46.6891   64.1811 H   0  0  0  0  0  0  0  0  0  0  0  0
   47.3725   45.4937   61.7711 H   0  0  0  0  0  0  0  0  0  0  0  0
   48.9463   44.1601   63.0528 H   0  0  0  0  0  0  0  0  0  0  0  0
   50.1497   45.4603   62.9599 H   0  0  0  0  0  0  0  0  0  0  0  0
   48.9631   43.9631   60.5720 H   0  0  0  0  0  0  0  0  0  0  0  0
   50.6080   43.7714   61.2209 H   0  0  0  0  0  0  0  0  0  0  0  0
   48.3550   45.9226   59.5098 H   0  0  0  0  0  0  0  0  0  0  0  0
   49.5306   47.2446   59.3219 H   0  0  0  0  0  0  0  0  0  0  0  0
   49.4298   47.7260   61.7494 H   0  0  0  0  0  0  0  0  0  0  0  0
   47.7915   47.7826   61.0539 H   0  0  0  0  0  0  0  0  0  0  0  0
   44.9836   47.6397   66.9041 H   0  0  0  0  0  0  0  0  0  0  0  0
   51.4939   48.1680   67.6312 H   0  0  0  0  0  0  0  0  0  0  0  0
   51.3849   48.1765   65.8905 H   0  0  0  0  0  0  0  0  0  0  0  0
   52.9485   47.5536   64.7613 H   0  0  0  0  0  0  0  0  0  0  0  0
   51.3967   47.0270   64.0760 H   0  0  0  0  0  0  0  0  0  0  0  0
   51.8308   43.7541   65.2707 H   0  0  0  0  0  0  0  0  0  0  0  0
   53.2704   44.1331   66.2427 H   0  0  0  0  0  0  0  0  0  0  0  0
   53.9904   46.3941   63.0788 H   0  0  0  0  0  0  0  0  0  0  0  0
   52.4599   45.6630   62.5658 H   0  0  0  0  0  0  0  0  0  0  0  0
   53.2948   43.6925   63.4593 H   0  0  0  0  0  0  0  0  0  0  0  0
   54.5610   44.5505   64.3587 H   0  0  0  0  0  0  0  0  0  0  0  0
   43.1020   47.3111   65.5630 H   0  0  0  0  0  0  0  0  0  0  0  0
  1  2  1  0  0  0  0
  1 32  1  0  0  0  0
  1 33  1  0  0  0  0
  1 34  1  0  0  0  0
  2  3  1  0  0  0  0
  2 35  1  0  0  0  0
  2 36  1  0  0  0  0
  3  4  1  0  0  0  0
  3 18  2  0  0  0  0
  4  5  1  0  0  0  0
  5  6  2  0  0  0  0
  5 37  1  0  0  0  0
  6  7  1  0  0  0  0
  6 18  1  0  0  0  0
  7  8  1  0  0  0  0
  7 15  2  0  0  0  0
  8  9  1  0  0  0  0
  8 38  1  0  0  0  0
  9 10  1  0  0  0  0
  9 14  1  0  0  0  0
  9 39  1  0  0  0  0
 10 11  1  0  0  0  0
 10 40  1  0  0  0  0
 10 41  1  0  0  0  0
 11 12  1  0  0  0  0
 11 42  1  0  0  0  0
 11 43  1  0  0  0  0
 12 13  1  0  0  0  0
 13 14  1  0  0  0  0
 13 44  1  0  0  0  0
 13 45  1  0  0  0  0
 14 46  1  0  0  0  0
 14 47  1  0  0  0  0
 15 16  1  0  0  0  0
 15 19  1  0  0  0  0
 16 17  2  0  0  0  0
 16 48  1  0  0  0  0
 17 18  1  0  0  0  0
 17 59  1  0  0  0  0
 19 20  1  0  0  0  0
 19 24  2  0  0  0  0
 20 21  1  0  0  0  0
 21 22  2  0  0  0  0
 22 23  1  0  0  0  0
 22 24  1  0  0  0  0
 23 26  1  0  0  0  0
 23 49  1  0  0  0  0
 23 50  1  0  0  0  0
 25 26  1  0  0  0  0
 25 27  1  0  0  0  0
 25 28  1  0  0  0  0
 26 29  2  0  0  0  0
 27 30  1  0  0  0  0
 27 51  1  0  0  0  0
 27 52  1  0  0  0  0
 28 31  1  0  0  0  0
 28 53  1  0  0  0  0
 28 54  1  0  0  0  0
 30 31  1  0  0  0  0
 30 55  1  0  0  0  0
 30 56  1  0  0  0  0
 31 57  1  0  0  0  0
 31 58  1  0  0  0  0
M  CHG  2   3   1  17   1
M  END
$$$$
