ZGA
 OpenBabel04091916253D

 92 94  0  0  1  0  0  0  0  0999 V2000
   15.7009   65.1058   51.9859 C   0  0  0  0  0  0  0  0  0  0  0  0
   14.2145   52.1245   54.0438 C   0  0  0  0  0  0  0  0  0  0  0  0
   12.2054   65.8443   49.5109 C   0  0  0  0  0  0  0  0  0  0  0  0
   19.5198   53.4147   50.7902 C   0  0  0  0  0  0  0  0  0  0  0  0
   15.0115   53.8389   51.5780 C   0  0  0  0  0  0  0  0  0  0  0  0
   17.2488   64.8094   48.8127 C   0  0  0  0  0  0  0  0  0  0  0  0
   12.6324   63.8186   50.6868 O   0  0  0  0  0  0  0  0  0  0  0  0
   18.6382   56.7049   54.4205 O   0  0  0  0  0  0  0  0  0  0  0  0
   18.7498   63.1738   57.5860 O   0  0  0  0  0  0  0  0  0  0  0  0
   20.2528   58.7386   56.2831 O   0  0  0  0  0  0  0  0  0  0  0  0
   21.2212   58.9216   53.1157 O   0  0  0  0  0  0  0  0  0  0  0  0
   19.9762   61.3960   58.2286 O   0  0  0  0  0  0  0  0  0  0  0  0
   22.1342   60.0255   56.0621 O   0  0  0  0  0  0  0  0  0  0  0  0
   20.5959   60.5649   51.6981 O   0  0  0  0  0  0  0  0  0  0  0  0
   16.0827   59.9821   55.0818 O   0  0  0  0  0  0  0  0  0  0  0  0
   20.7916   62.0873   54.8857 O   0  0  0  0  0  0  0  0  0  0  0  0
   18.1874   56.1987   52.1759 C   0  0  0  0  0  0  0  0  0  0  0  0
   18.3944   54.8727   52.3675 C   0  0  0  0  0  0  0  0  0  0  0  0
   18.5679   61.5211   44.7546 C   0  0  0  0  0  0  0  0  0  0  0  0
   18.1055   62.8280   44.6388 C   0  0  0  0  0  0  0  0  0  0  0  0
   18.1389   60.7188   45.8128 C   0  0  0  0  0  0  0  0  0  0  0  0
   17.2223   63.3373   45.5832 C   0  0  0  0  0  0  0  0  0  0  0  0
   17.2593   61.2298   46.7673 C   0  0  0  0  0  0  0  0  0  0  0  0
   15.3527   51.8282   53.0822 C   0  0  0  0  0  0  0  0  0  0  0  0
   16.2234   62.6209   52.0673 C   0  0  0  0  0  0  0  0  0  0  0  0
   16.6768   62.8019   53.5108 C   0  0  0  0  0  0  0  0  0  0  0  0
   15.8128   63.1139   47.6376 C   0  0  0  0  0  0  0  0  0  0  0  0
   17.2929   52.7129   51.7529 C   0  0  0  0  0  0  0  0  0  0  0  0
   14.3639   64.7947   49.5338 O   0  0  0  0  0  0  0  0  0  0  0  0
   18.1216   58.4102   52.9231 O   0  0  0  0  0  0  0  0  0  0  0  0
   17.8732   62.0990   55.3792 O   0  0  0  0  0  0  0  0  0  0  0  0
   18.7424   61.6102   53.2711 O   0  0  0  0  0  0  0  0  0  0  0  0
   13.0907   64.7262   49.9869 C   0  0  0  0  0  0  0  0  0  0  0  0
   18.4036   57.1337   53.2935 C   0  0  0  0  0  0  0  0  0  0  0  0
   15.7275   63.8995   51.3917 C   0  0  0  0  0  0  0  0  0  0  0  0
   19.2821   62.0299   57.3884 C   0  0  0  0  0  0  0  0  0  0  0  0
   20.8879   59.7728   55.8998 C   0  0  0  0  0  0  0  0  0  0  0  0
   20.5473   59.9457   52.8144 C   0  0  0  0  0  0  0  0  0  0  0  0
   16.7879   62.5419   46.6503 C   0  0  0  0  0  0  0  0  0  0  0  0
   18.1505   53.8864   51.2725 C   0  0  2  0  0  0  0  0  0  0  0  0
   15.9868   53.0971   52.4923 C   0  0  1  0  0  0  0  0  0  0  0  0
   16.4203   63.5311   48.9783 C   0  0  2  0  0  0  0  0  0  0  0  0
   16.9895   60.2673   54.0037 C   0  0  2  0  0  0  0  0  0  0  0  0
   15.2327   63.7030   49.9719 C   0  0  2  0  0  0  0  0  0  0  0  0
   18.8604   61.2873   56.0882 C   0  0  2  0  0  0  0  0  0  0  0  0
   18.2642   59.3800   53.9918 C   0  0  2  0  0  0  0  0  0  0  0  0
   20.0250   60.8672   55.1660 C   0  0  1  0  0  0  0  0  0  0  0  0
   17.5631   61.6849   54.0574 C   0  0  2  0  0  0  0  0  0  0  0  0
   19.4305   60.3972   53.8022 C   0  0  2  0  0  0  0  0  0  0  0  0
   16.0401   65.2594   53.0037 H   0  0  0  0  0  0  0  0  0  0  0  0
   15.3611   65.9869   51.4598 H   0  0  0  0  0  0  0  0  0  0  0  0
   13.8159   51.1909   54.4494 H   0  0  0  0  0  0  0  0  0  0  0  0
   13.3922   52.6451   53.5461 H   0  0  0  0  0  0  0  0  0  0  0  0
   14.5617   52.7419   54.8787 H   0  0  0  0  0  0  0  0  0  0  0  0
   11.2124   65.6938   49.9463 H   0  0  0  0  0  0  0  0  0  0  0  0
   12.0895   65.8131   48.4261 H   0  0  0  0  0  0  0  0  0  0  0  0
   12.5588   66.8226   49.8470 H   0  0  0  0  0  0  0  0  0  0  0  0
   20.1096   54.2595   50.4312 H   0  0  0  0  0  0  0  0  0  0  0  0
   19.4300   52.7012   49.9630 H   0  0  0  0  0  0  0  0  0  0  0  0
   20.0813   52.9396   51.5975 H   0  0  0  0  0  0  0  0  0  0  0  0
   14.0945   54.1002   52.1148 H   0  0  0  0  0  0  0  0  0  0  0  0
   14.7339   53.2307   50.7111 H   0  0  0  0  0  0  0  0  0  0  0  0
   15.4395   54.7785   51.2181 H   0  0  0  0  0  0  0  0  0  0  0  0
   18.0740   64.6508   48.1106 H   0  0  0  0  0  0  0  0  0  0  0  0
   17.6899   65.1313   49.7602 H   0  0  0  0  0  0  0  0  0  0  0  0
   16.6324   65.6263   48.4248 H   0  0  0  0  0  0  0  0  0  0  0  0
   16.5726   60.2045   55.9001 H   0  0  0  0  0  0  0  0  0  0  0  0
   20.1596   62.6558   54.4176 H   0  0  0  0  0  0  0  0  0  0  0  0
   17.8355   56.5924   51.2390 H   0  0  0  0  0  0  0  0  0  0  0  0
   18.7542   54.5114   53.3333 H   0  0  0  0  0  0  0  0  0  0  0  0
   19.2763   61.1282   44.0316 H   0  0  0  0  0  0  0  0  0  0  0  0
   18.4367   63.4590   43.8174 H   0  0  0  0  0  0  0  0  0  0  0  0
   18.4989   59.6970   45.9040 H   0  0  0  0  0  0  0  0  0  0  0  0
   16.8747   64.3631   45.5001 H   0  0  0  0  0  0  0  0  0  0  0  0
   16.9529   60.6035   47.6042 H   0  0  0  0  0  0  0  0  0  0  0  0
   14.9864   51.1824   52.2760 H   0  0  0  0  0  0  0  0  0  0  0  0
   16.1182   51.2645   53.6294 H   0  0  0  0  0  0  0  0  0  0  0  0
   15.4104   61.8830   52.0518 H   0  0  0  0  0  0  0  0  0  0  0  0
   17.0459   62.1960   51.4801 H   0  0  0  0  0  0  0  0  0  0  0  0
   15.7979   62.9560   54.1516 H   0  0  0  0  0  0  0  0  0  0  0  0
   17.2744   63.7209   53.5778 H   0  0  0  0  0  0  0  0  0  0  0  0
   15.0246   62.3686   47.7979 H   0  0  0  0  0  0  0  0  0  0  0  0
   15.3155   63.9845   47.1906 H   0  0  0  0  0  0  0  0  0  0  0  0
   17.9019   52.0875   52.4310 H   0  0  0  0  0  0  0  0  0  0  0  0
   17.0474   52.0644   50.8968 H   0  0  0  0  0  0  0  0  0  0  0  0
   17.6398   54.3639   50.4225 H   0  0  0  0  0  0  0  0  0  0  0  0
   16.2393   53.7606   53.3255 H   0  0  0  0  0  0  0  0  0  0  0  0
   17.0952   62.7384   49.3368 H   0  0  0  0  0  0  0  0  0  0  0  0
   16.4185   60.1076   53.0859 H   0  0  0  0  0  0  0  0  0  0  0  0
   14.6528   62.7735   49.9424 H   0  0  0  0  0  0  0  0  0  0  0  0
   18.3199   60.4102   56.4598 H   0  0  0  0  0  0  0  0  0  0  0  0
   18.3223   58.8579   54.9417 H   0  0  0  0  0  0  0  0  0  0  0  0
  1 35  2  0  0  0  0
  1 50  1  0  0  0  0
  1 51  1  0  0  0  0
  2 24  1  0  0  0  0
  2 52  1  0  0  0  0
  2 53  1  0  0  0  0
  2 54  1  0  0  0  0
  3 33  1  0  0  0  0
  3 55  1  0  0  0  0
  3 56  1  0  0  0  0
  3 57  1  0  0  0  0
  4 40  1  0  0  0  0
  4 58  1  0  0  0  0
  4 59  1  0  0  0  0
  4 60  1  0  0  0  0
  5 41  1  0  0  0  0
  5 61  1  0  0  0  0
  5 62  1  0  0  0  0
  5 63  1  0  0  0  0
  6 42  1  0  0  0  0
  6 64  1  0  0  0  0
  6 65  1  0  0  0  0
  6 66  1  0  0  0  0
  7 33  2  0  0  0  0
  8 34  2  0  0  0  0
  9 36  2  0  0  0  0
 10 37  2  0  0  0  0
 11 38  2  0  0  0  0
 12 36  1  0  0  0  0
 13 37  1  0  0  0  0
 14 38  1  0  0  0  0
 15 43  1  0  0  0  0
 15 67  1  0  0  0  0
 16 68  1  0  0  0  0
 17 18  2  0  0  0  0
 17 34  1  0  0  0  0
 17 69  1  0  0  0  0
 18 40  1  0  0  0  0
 18 70  1  0  0  0  0
 19 20  2  0  0  0  0
 19 21  1  0  0  0  0
 19 71  1  0  0  0  0
 20 22  1  0  0  0  0
 20 72  1  0  0  0  0
 21 23  2  0  0  0  0
 21 73  1  0  0  0  0
 22 39  2  0  0  0  0
 22 74  1  0  0  0  0
 23 39  1  0  0  0  0
 23 75  1  0  0  0  0
 24 41  1  0  0  0  0
 24 76  1  0  0  0  0
 24 77  1  0  0  0  0
 25 26  1  0  0  0  0
 25 35  1  0  0  0  0
 25 78  1  0  0  0  0
 25 79  1  0  0  0  0
 26 80  1  0  0  0  0
 26 81  1  0  0  0  0
 27 39  1  0  0  0  0
 27 42  1  0  0  0  0
 27 82  1  0  0  0  0
 27 83  1  0  0  0  0
 28 40  1  0  0  0  0
 28 41  1  0  0  0  0
 28 84  1  0  0  0  0
 28 85  1  0  0  0  0
 29 33  1  0  0  0  0
 29 44  1  0  0  0  0
 30 34  1  0  0  0  0
 30 46  1  0  0  0  0
 31 45  1  0  0  0  0
 31 48  1  0  0  0  0
 32 48  1  0  0  0  0
 32 49  1  0  0  0  0
 35 44  1  0  0  0  0
 36 45  1  0  0  0  0
 37 47  1  0  0  0  0
 40 86  1  6  0  0  0
 41 87  1  1  0  0  0
 42 44  1  0  0  0  0
 42 88  1  1  0  0  0
 43 46  1  0  0  0  0
 43 48  1  0  0  0  0
 43 89  1  6  0  0  0
 44 90  1  6  0  0  0
 45 47  1  0  0  0  0
 45 91  1  1  0  0  0
 46 49  1  0  0  0  0
 46 92  1  1  0  0  0
 47 16  1  6  0  0  0
 47 49  1  0  0  0  0
 48 26  1  6  0  0  0
 49 38  1  6  0  0  0
M  END
$$$$
