ZT4
 OpenBabel04091916493D

 36 39  0  0  1  0  0  0  0  0999 V2000
  -30.7821   28.8970    0.8262 C   0  0  0  0  0  0  0  0  0  0  0  0
  -30.9765   27.6548    0.2178 C   0  0  0  0  0  0  0  0  0  0  0  0
  -31.6276   29.9715    0.5312 C   0  0  0  0  0  0  0  0  0  0  0  0
  -33.3943   32.3126    1.9469 C   0  0  0  0  0  0  0  0  0  0  0  0
  -32.0220   27.4736   -0.6872 C   0  0  0  0  0  0  0  0  0  0  0  0
  -32.6951   32.9754    2.9549 C   0  0  0  0  0  0  0  0  0  0  0  0
  -32.6911   29.7918   -0.3436 C   0  0  0  0  0  0  0  0  0  0  0  0
  -33.3975   32.7988    0.6142 C   0  0  0  0  0  0  0  0  0  0  0  0
  -32.7825   34.0353    0.3011 C   0  0  0  0  0  0  0  0  0  0  0  0
  -32.8674   28.5467   -0.9565 C   0  0  0  0  0  0  0  0  0  0  0  0
  -32.0411   34.1345    2.6121 C   0  0  0  0  0  0  0  0  0  0  0  0
  -32.0971   34.6631    1.3336 C   0  0  0  0  0  0  0  0  0  0  0  0
  -33.7245   30.7233   -0.8228 C   0  0  0  0  0  0  0  0  0  0  0  0
  -34.0384   31.9710   -0.4227 C   0  0  0  0  0  0  0  0  0  0  0  0
  -32.8349   34.6510   -1.0754 C   0  0  0  0  0  0  0  0  0  0  0  0
  -34.0387   28.5330   -1.8847 C   0  0  0  0  0  0  0  0  0  0  0  0
  -30.7584   35.8599    2.5425 C   0  0  0  0  0  0  0  0  0  0  0  0
  -34.4406   30.0136   -1.9644 C   0  0  1  0  0  0  0  0  0  0  0  0
  -31.7630   35.1565   -1.5382 O   0  0  0  0  0  0  0  0  0  0  0  0
  -33.9527   34.6187   -1.6848 O   0  0  0  0  0  0  0  0  0  0  0  0
  -31.2818   34.8796    3.4614 O   0  0  0  0  0  0  0  0  0  0  0  0
  -31.4124   35.8421    1.2704 O   0  0  0  0  0  0  0  0  0  0  0  0
  -35.8573   30.1285   -1.8685 O   0  0  0  0  0  0  0  0  0  0  0  0
  -29.9619   29.0417    1.5244 H   0  0  0  0  0  0  0  0  0  0  0  0
  -30.3019   26.8332    0.4419 H   0  0  0  0  0  0  0  0  0  0  0  0
  -31.4199   30.9348    0.9807 H   0  0  0  0  0  0  0  0  0  0  0  0
  -33.8978   31.3755    2.1778 H   0  0  0  0  0  0  0  0  0  0  0  0
  -32.1675   26.5160   -1.1751 H   0  0  0  0  0  0  0  0  0  0  0  0
  -32.6469   32.5783    3.9605 H   0  0  0  0  0  0  0  0  0  0  0  0
  -34.8233   32.5128   -0.9483 H   0  0  0  0  0  0  0  0  0  0  0  0
  -34.8432   27.9058   -1.4846 H   0  0  0  0  0  0  0  0  0  0  0  0
  -33.7517   28.1576   -2.8731 H   0  0  0  0  0  0  0  0  0  0  0  0
  -29.6887   35.6654    2.3948 H   0  0  0  0  0  0  0  0  0  0  0  0
  -30.8709   36.8543    2.9889 H   0  0  0  0  0  0  0  0  0  0  0  0
  -34.1201   30.4339   -2.9264 H   0  0  0  0  0  0  0  0  0  0  0  0
  -36.0506   31.0799   -1.9453 H   0  0  0  0  0  0  0  0  0  0  0  0
  1  2  2  0  0  0  0
  1  3  1  0  0  0  0
  1 24  1  0  0  0  0
  2  5  1  0  0  0  0
  2 25  1  0  0  0  0
  3  7  2  0  0  0  0
  3 26  1  0  0  0  0
  4  6  2  0  0  0  0
  4  8  1  0  0  0  0
  4 27  1  0  0  0  0
  5 10  2  0  0  0  0
  5 28  1  0  0  0  0
  6 11  1  0  0  0  0
  6 29  1  0  0  0  0
  7 10  1  0  0  0  0
  7 13  1  0  0  0  0
  8  9  2  0  0  0  0
  8 14  1  0  0  0  0
  9 12  1  0  0  0  0
  9 15  1  0  0  0  0
 10 16  1  0  0  0  0
 11 12  2  0  0  0  0
 11 21  1  0  0  0  0
 12 22  1  0  0  0  0
 13 14  2  0  0  0  0
 13 18  1  0  0  0  0
 14 30  1  0  0  0  0
 15 19  2  0  0  0  0
 15 20  1  0  0  0  0
 16 18  1  0  0  0  0
 16 31  1  0  0  0  0
 16 32  1  0  0  0  0
 17 21  1  0  0  0  0
 17 22  1  0  0  0  0
 17 33  1  0  0  0  0
 17 34  1  0  0  0  0
 18 23  1  0  0  0  0
 18 35  1  6  0  0  0
 23 36  1  0  0  0  0
M  END
$$$$
