4W7T_3JC_A_301
 OpenBabel03301717353D

 34 36  0  0  1  0  0  0  0  0999 V2000
   -3.0047   -9.8219  -26.3302 C   0  0  0  0  0  0  0  0  0  0  0  0
   -1.7194   -9.7581  -25.8504 C   0  0  0  0  0  0  0  0  0  0  0  0
   -1.4963  -10.3507  -24.6227 C   0  0  0  0  0  0  0  0  0  0  0  0
   -0.7219   -8.6896  -27.7268 O   0  0  0  0  0  0  0  0  0  0  0  0
    4.2528  -10.9295  -23.3712 C   0  0  0  0  0  0  0  0  0  0  0  0
    4.8125   -9.6694  -23.2405 C   0  0  0  0  0  0  0  0  0  0  0  0
    4.1245   -8.5560  -23.6803 C   0  0  0  0  0  0  0  0  0  0  0  0
    2.8764   -8.7099  -24.2480 C   0  0  0  0  0  0  0  0  0  0  0  0
   -3.4051   -9.2255  -27.6439 C   0  0  0  0  0  0  0  0  0  0  0  0
   -3.9965  -10.4144  -25.6532 N   0  0  0  0  0  0  0  0  0  0  0  0
   -2.4658  -10.9432  -23.9225 N   0  0  0  0  0  0  0  0  0  0  0  0
   -4.6867  -11.5561  -23.7773 N   0  0  0  0  0  0  0  0  0  0  0  0
   -3.6988  -10.9612  -24.4625 C   0  0  0  0  0  0  0  0  0  0  0  0
   -0.6236   -9.1125  -26.5838 C   0  0  0  0  0  0  0  0  0  0  0  0
    0.6522   -8.9324  -25.8692 C   0  0  0  0  0  0  0  0  0  0  0  0
    0.9605  -10.1494  -25.0338 C   0  0  1  0  0  0  0  0  0  0  0  0
    2.3051   -9.9720  -24.3946 C   0  0  0  0  0  0  0  0  0  0  0  0
   -0.1245  -10.3420  -23.9872 C   0  0  0  0  0  0  0  0  0  0  0  0
    3.0045  -11.0811  -23.9451 C   0  0  0  0  0  0  0  0  0  0  0  0
    4.7939  -11.8028  -23.0237 H   0  0  0  0  0  0  0  0  0  0  0  0
    5.7941   -9.5525  -22.7905 H   0  0  0  0  0  0  0  0  0  0  0  0
    4.5519   -7.5640  -23.5835 H   0  0  0  0  0  0  0  0  0  0  0  0
    2.3613   -7.8165  -24.5875 H   0  0  0  0  0  0  0  0  0  0  0  0
   -2.5896   -8.7418  -28.1679 H   0  0  0  0  0  0  0  0  0  0  0  0
   -4.1530   -8.4448  -27.4998 H   0  0  0  0  0  0  0  0  0  0  0  0
   -3.7742   -9.9992  -28.3189 H   0  0  0  0  0  0  0  0  0  0  0  0
   -4.4872  -11.9740  -22.8829 H   0  0  0  0  0  0  0  0  0  0  0  0
   -5.6164  -11.5768  -24.1690 H   0  0  0  0  0  0  0  0  0  0  0  0
    0.5571   -8.0383  -25.2498 H   0  0  0  0  0  0  0  0  0  0  0  0
    1.4460   -8.7798  -26.6116 H   0  0  0  0  0  0  0  0  0  0  0  0
    0.9837  -11.0419  -25.6740 H   0  0  0  0  0  0  0  0  0  0  0  0
    0.0364  -11.2950  -23.4734 H   0  0  0  0  0  0  0  0  0  0  0  0
   -0.0797   -9.5331  -23.2477 H   0  0  0  0  0  0  0  0  0  0  0  0
    2.5722  -12.0721  -24.0492 H   0  0  0  0  0  0  0  0  0  0  0  0
  1  2  2  0  0  0  0
  1  9  1  0  0  0  0
  1 10  1  0  0  0  0
  2  3  1  0  0  0  0
  2 14  1  0  0  0  0
  3 11  2  0  0  0  0
  3 18  1  0  0  0  0
  4 14  2  0  0  0  0
  5  6  2  0  0  0  0
  5 19  1  0  0  0  0
  5 20  1  0  0  0  0
  6  7  1  0  0  0  0
  6 21  1  0  0  0  0
  7  8  2  0  0  0  0
  7 22  1  0  0  0  0
  8 17  1  0  0  0  0
  8 23  1  0  0  0  0
  9 24  1  0  0  0  0
  9 25  1  0  0  0  0
  9 26  1  0  0  0  0
 10 13  2  0  0  0  0
 11 13  1  0  0  0  0
 12 13  1  0  0  0  0
 12 27  1  0  0  0  0
 12 28  1  0  0  0  0
 14 15  1  0  0  0  0
 15 16  1  0  0  0  0
 15 29  1  0  0  0  0
 15 30  1  0  0  0  0
 16 17  1  0  0  0  0
 16 18  1  0  0  0  0
 16 31  1  6  0  0  0
 17 19  2  0  0  0  0
 18 32  1  0  0  0  0
 18 33  1  0  0  0  0
 19 34  1  0  0  0  0
M  END
$$$$
