2CCT_2E1_A_1224
 OpenBabel03301717013D

 46 48  0  0  0  0  0  0  0  0999 V2000
   35.0457    7.1374   25.3726 C   0  0  0  0  0  0  0  0  0  0  0  0
   34.1407    8.2440   25.9246 C   0  0  0  0  0  0  0  0  0  0  0  0
   32.3070    7.4689   24.3135 C   0  0  0  0  0  0  0  0  0  0  0  0
   33.2667    6.3608   23.8478 C   0  0  0  0  0  0  0  0  0  0  0  0
   32.7189    8.0422   25.6000 N   0  0  0  0  0  0  0  0  0  0  0  0
   31.8085    8.7108   26.3586 C   0  0  0  0  0  0  0  0  0  0  0  0
   31.4309    8.3777   27.6864 C   0  0  0  0  0  0  0  0  0  0  0  0
   31.8871    7.1969   28.4303 C   0  0  0  0  0  0  0  0  0  0  0  0
   34.6877    6.8527   23.9398 N   0  3  0  0  0  0  0  0  0  0  0  0
   32.4237    6.2325   27.8770 O   0  0  0  0  0  0  0  0  0  0  0  0
   31.7034    7.2610   29.7910 N   0  0  0  0  0  0  0  0  0  0  0  0
   31.9540    6.1175   30.6326 C   0  0  0  0  0  0  0  0  0  0  0  0
   33.4385    5.8554   30.8400 C   0  0  0  0  0  0  0  0  0  0  0  0
   30.5771    9.2940   28.1848 N   0  0  0  0  0  0  0  0  0  0  0  0
   30.3500   10.1215   27.1400 N   0  3  0  0  0  0  0  0  0  0  0  0
   31.1123    9.8514   26.0303 C   0  0  0  0  0  0  0  0  0  0  0  0
   31.1211   10.6968   24.8393 C   0  0  0  0  0  0  0  0  0  0  0  0
   32.3438   11.1855   24.3610 C   0  0  0  0  0  0  0  0  0  0  0  0
   32.4017   11.9247   23.1822 C   0  0  0  0  0  0  0  0  0  0  0  0
   33.9475   12.4542   22.6284 Cl  0  0  0  0  0  0  0  0  0  0  0  0
   31.2296   12.1992   22.4756 C   0  0  0  0  0  0  0  0  0  0  0  0
   31.2994   12.9047   21.3074 O   0  0  0  0  0  0  0  0  0  0  0  0
   29.9959   11.7482   22.9515 C   0  0  0  0  0  0  0  0  0  0  0  0
   29.9514   11.0053   24.1321 C   0  0  0  0  0  0  0  0  0  0  0  0
   28.7523   10.5479   24.6135 O   0  0  0  0  0  0  0  0  0  0  0  0
   34.9337    6.2001   25.9265 H   0  0  0  0  0  0  0  0  0  0  0  0
   36.0952    7.4452   25.3873 H   0  0  0  0  0  0  0  0  0  0  0  0
   34.4661    9.2057   25.5142 H   0  0  0  0  0  0  0  0  0  0  0  0
   34.2890    8.2956   27.0102 H   0  0  0  0  0  0  0  0  0  0  0  0
   31.3034    7.0320   24.3980 H   0  0  0  0  0  0  0  0  0  0  0  0
   32.2641    8.2525   23.5508 H   0  0  0  0  0  0  0  0  0  0  0  0
   33.0880    6.0862   22.8050 H   0  0  0  0  0  0  0  0  0  0  0  0
   33.1983    5.4656   24.4755 H   0  0  0  0  0  0  0  0  0  0  0  0
   35.3338    6.1601   23.5443 H   0  0  0  0  0  0  0  0  0  0  0  0
   34.7825    7.7148   23.3875 H   0  0  0  0  0  0  0  0  0  0  0  0
   31.2416    8.0933   30.1520 H   0  0  0  0  0  0  0  0  0  0  0  0
   31.4916    5.2449   30.1612 H   0  0  0  0  0  0  0  0  0  0  0  0
   31.4597    6.2945   31.5928 H   0  0  0  0  0  0  0  0  0  0  0  0
   33.9631    5.7138   29.8914 H   0  0  0  0  0  0  0  0  0  0  0  0
   33.5802    4.9523   31.4378 H   0  0  0  0  0  0  0  0  0  0  0  0
   33.9156    6.6947   31.3586 H   0  0  0  0  0  0  0  0  0  0  0  0
   29.6851   10.8801   27.2535 H   0  0  0  0  0  0  0  0  0  0  0  0
   33.2576   10.9922   24.9136 H   0  0  0  0  0  0  0  0  0  0  0  0
   30.4083   13.0935   20.9690 H   0  0  0  0  0  0  0  0  0  0  0  0
   29.0865   11.9658   22.4017 H   0  0  0  0  0  0  0  0  0  0  0  0
   28.0324   10.8079   24.0124 H   0  0  0  0  0  0  0  0  0  0  0  0
  1  2  1  0  0  0  0
  1  9  1  0  0  0  0
  1 26  1  0  0  0  0
  1 27  1  0  0  0  0
  2  5  1  0  0  0  0
  2 28  1  0  0  0  0
  2 29  1  0  0  0  0
  3  4  1  0  0  0  0
  3  5  1  0  0  0  0
  3 30  1  0  0  0  0
  3 31  1  0  0  0  0
  4  9  1  0  0  0  0
  4 32  1  0  0  0  0
  4 33  1  0  0  0  0
  5  6  1  0  0  0  0
  6  7  2  0  0  0  0
  6 16  1  0  0  0  0
  7  8  1  0  0  0  0
  7 14  1  0  0  0  0
  8 10  2  0  0  0  0
  8 11  1  0  0  0  0
  9 34  1  0  0  0  0
  9 35  1  0  0  0  0
 11 12  1  0  0  0  0
 11 36  1  0  0  0  0
 12 13  1  0  0  0  0
 12 37  1  0  0  0  0
 12 38  1  0  0  0  0
 13 39  1  0  0  0  0
 13 40  1  0  0  0  0
 13 41  1  0  0  0  0
 14 15  1  0  0  0  0
 15 16  2  0  0  0  0
 15 42  1  0  0  0  0
 16 17  1  0  0  0  0
 17 18  2  0  0  0  0
 17 24  1  0  0  0  0
 18 19  1  0  0  0  0
 18 43  1  0  0  0  0
 19 20  1  0  0  0  0
 19 21  2  0  0  0  0
 21 22  1  0  0  0  0
 21 23  1  0  0  0  0
 22 44  1  0  0  0  0
 23 24  2  0  0  0  0
 23 45  1  0  0  0  0
 24 25  1  0  0  0  0
 25 46  1  0  0  0  0
M  CHG  2   9   1  15   1
M  END
$$$$
