001
 OpenBabel04041915093D

 87 90  0  0  1  0  0  0  0  0999 V2000
   26.1349   12.4897   25.8598 C   0  0  0  0  0  0  0  0  0  0  0  0
   25.5204   13.4517   26.6749 C   0  0  0  0  0  0  0  0  0  0  0  0
   26.0554   13.7976   27.9233 C   0  0  0  0  0  0  0  0  0  0  0  0
   27.2245   13.1387   28.3781 C   0  0  0  0  0  0  0  0  0  0  0  0
   27.8614   12.1723   27.5620 C   0  0  0  0  0  0  0  0  0  0  0  0
   27.3049   11.8644   26.3143 C   0  0  0  0  0  0  0  0  0  0  0  0
   25.5042   14.7717   28.7190 O   0  0  0  0  0  0  0  0  0  0  0  0
   24.3217   15.4219   28.2652 C   0  0  0  0  0  0  0  0  0  0  0  0
   27.8709   13.4988   29.5418 O   0  0  0  0  0  0  0  0  0  0  0  0
   27.0773   13.3524   30.7188 C   0  0  0  0  0  0  0  0  0  0  0  0
   28.9842   11.5431   28.0573 O   0  0  0  0  0  0  0  0  0  0  0  0
   29.7728   10.7988   27.1421 C   0  0  0  0  0  0  0  0  0  0  0  0
   25.4550   12.0255   24.5699 C   0  0  0  0  0  0  0  0  0  0  0  0
   26.4748   11.8652   23.4182 C   0  0  0  0  0  0  0  0  0  0  0  0
   26.9158   10.7250   23.1222 O   0  0  0  0  0  0  0  0  0  0  0  0
   26.8996   12.9723   22.7026 N   0  0  0  0  0  0  0  0  0  0  0  0
   26.6021   14.3531   23.0658 C   0  0  0  0  0  0  0  0  0  0  0  0
   26.3226   15.2303   21.8695 C   0  0  0  0  0  0  0  0  0  0  0  0
   27.3365   15.0568   20.7473 C   0  0  0  0  0  0  0  0  0  0  0  0
   27.5591   13.5799   20.4286 C   0  0  0  0  0  0  0  0  0  0  0  0
   27.9359   12.7901   21.6867 C   0  0  1  0  0  0  0  0  0  0  0  0
   29.3496   13.1030   22.1056 C   0  0  0  0  0  0  0  0  0  0  0  0
   30.2496   13.1392   21.2697 O   0  0  0  0  0  0  0  0  0  0  0  0
   29.5813   13.3415   23.4334 O   0  0  0  0  0  0  0  0  0  0  0  0
   30.9222   13.7798   23.7336 C   0  0  2  0  0  0  0  0  0  0  0  0
   31.6447   12.6323   24.4111 C   0  0  0  0  0  0  0  0  0  0  0  0
   33.0308   12.9980   24.9185 C   0  0  0  0  0  0  0  0  0  0  0  0
   33.9842   11.8378   24.7173 C   0  0  0  0  0  0  0  0  0  0  0  0
   34.6556   11.9554   23.3854 C   0  0  0  0  0  0  0  0  0  0  0  0
   35.5629   12.9841   23.1225 C   0  0  0  0  0  0  0  0  0  0  0  0
   36.2197   13.1306   21.9611 N   0  0  0  0  0  0  0  0  0  0  0  0
   35.9684   12.2097   20.9966 C   0  0  0  0  0  0  0  0  0  0  0  0
   35.0607   11.1727   21.1501 C   0  0  0  0  0  0  0  0  0  0  0  0
   34.3909   11.0514   22.3560 C   0  0  0  0  0  0  0  0  0  0  0  0
   30.9810   15.0387   24.6158 C   0  0  0  0  0  0  0  0  0  0  0  0
   29.6581   15.6695   24.9213 C   0  0  0  0  0  0  0  0  0  0  0  0
   29.2163   15.3624   26.3377 C   0  0  0  0  0  0  0  0  0  0  0  0
   28.2421   16.3974   26.7948 C   0  0  0  0  0  0  0  0  0  0  0  0
   27.0469   16.6101   26.1007 C   0  0  0  0  0  0  0  0  0  0  0  0
   26.1668   17.6065   26.4976 C   0  0  0  0  0  0  0  0  0  0  0  0
   26.4628   18.3801   27.6140 C   0  0  0  0  0  0  0  0  0  0  0  0
   27.6539   18.1812   28.3098 C   0  0  0  0  0  0  0  0  0  0  0  0
   28.5437   17.1966   27.8996 C   0  0  0  0  0  0  0  0  0  0  0  0
   24.4434   12.8655   24.1861 F   0  0  0  0  0  0  0  0  0  0  0  0
   24.8272   10.8364   24.8053 F   0  0  0  0  0  0  0  0  0  0  0  0
   24.6112   13.9251   26.3106 H   0  0  0  0  0  0  0  0  0  0  0  0
   27.7514   11.1055   25.6759 H   0  0  0  0  0  0  0  0  0  0  0  0
   24.0150   16.1537   29.0180 H   0  0  0  0  0  0  0  0  0  0  0  0
   23.4993   14.7158   28.1203 H   0  0  0  0  0  0  0  0  0  0  0  0
   24.4947   15.9624   27.3360 H   0  0  0  0  0  0  0  0  0  0  0  0
   27.6828   13.6642   31.5773 H   0  0  0  0  0  0  0  0  0  0  0  0
   26.7943   12.3065   30.8690 H   0  0  0  0  0  0  0  0  0  0  0  0
   26.1904   13.9876   30.7264 H   0  0  0  0  0  0  0  0  0  0  0  0
   30.6420   10.3671   27.6515 H   0  0  0  0  0  0  0  0  0  0  0  0
   30.1476   11.4685   26.3957 H   0  0  0  0  0  0  0  0  0  0  0  0
   29.2338    9.9820   26.6399 H   0  0  0  0  0  0  0  0  0  0  0  0
   27.4821   14.7378   23.5627 H   0  0  0  0  0  0  0  0  0  0  0  0
   25.8130   14.4386   23.7971 H   0  0  0  0  0  0  0  0  0  0  0  0
   26.3016   16.2870   22.1811 H   0  0  0  0  0  0  0  0  0  0  0  0
   25.3189   14.9880   21.4986 H   0  0  0  0  0  0  0  0  0  0  0  0
   28.2897   15.5152   21.0352 H   0  0  0  0  0  0  0  0  0  0  0  0
   26.9875   15.5789   19.8519 H   0  0  0  0  0  0  0  0  0  0  0  0
   28.3411   13.4890   19.6656 H   0  0  0  0  0  0  0  0  0  0  0  0
   26.6425   13.1647   19.9890 H   0  0  0  0  0  0  0  0  0  0  0  0
   27.9641   11.7226   21.4015 H   0  0  0  0  0  0  0  0  0  0  0  0
   31.4874   14.0166   22.8303 H   0  0  0  0  0  0  0  0  0  0  0  0
   31.6397   11.7527   23.7590 H   0  0  0  0  0  0  0  0  0  0  0  0
   31.0563   12.3708   25.2704 H   0  0  0  0  0  0  0  0  0  0  0  0
   32.9759   13.2402   25.9892 H   0  0  0  0  0  0  0  0  0  0  0  0
   33.3854   13.9033   24.4121 H   0  0  0  0  0  0  0  0  0  0  0  0
   33.4440   10.8824   24.7967 H   0  0  0  0  0  0  0  0  0  0  0  0
   34.7409   11.8304   25.5057 H   0  0  0  0  0  0  0  0  0  0  0  0
   35.7777   13.7413   23.8711 H   0  0  0  0  0  0  0  0  0  0  0  0
   36.5309   12.3295   20.0867 H   0  0  0  0  0  0  0  0  0  0  0  0
   34.8868   10.4676   20.3436 H   0  0  0  0  0  0  0  0  0  0  0  0
   33.6630   10.2586   22.4955 H   0  0  0  0  0  0  0  0  0  0  0  0
   31.6128   15.7781   24.1135 H   0  0  0  0  0  0  0  0  0  0  0  0
   31.4959   14.8379   25.5608 H   0  0  0  0  0  0  0  0  0  0  0  0
   28.9305   15.3041   24.2303 H   0  0  0  0  0  0  0  0  0  0  0  0
   29.6890   16.7480   24.7199 H   0  0  0  0  0  0  0  0  0  0  0  0
   30.0797   15.3434   27.0137 H   0  0  0  0  0  0  0  0  0  0  0  0
   28.7706   14.3687   26.3815 H   0  0  0  0  0  0  0  0  0  0  0  0
   26.7940   15.9869   25.2537 H   0  0  0  0  0  0  0  0  0  0  0  0
   25.2291   17.7370   25.9667 H   0  0  0  0  0  0  0  0  0  0  0  0
   25.7599   19.1364   27.9481 H   0  0  0  0  0  0  0  0  0  0  0  0
   27.8913   18.7918   29.1744 H   0  0  0  0  0  0  0  0  0  0  0  0
   29.4781   17.0511   28.4379 H   0  0  0  0  0  0  0  0  0  0  0  0
  1 13  1  0  0  0  0
  1  6  2  0  0  0  0
  1  2  1  0  0  0  0
  2  3  2  0  0  0  0
  2 46  1  0  0  0  0
  3  7  1  0  0  0  0
  3  4  1  0  0  0  0
  4  9  1  0  0  0  0
  4  5  2  0  0  0  0
  5 11  1  0  0  0  0
  5  6  1  0  0  0  0
  6 47  1  0  0  0  0
  7  8  1  0  0  0  0
  8 48  1  0  0  0  0
  8 49  1  0  0  0  0
  8 50  1  0  0  0  0
  9 10  1  0  0  0  0
 10 51  1  0  0  0  0
 10 52  1  0  0  0  0
 10 53  1  0  0  0  0
 11 12  1  0  0  0  0
 12 54  1  0  0  0  0
 12 55  1  0  0  0  0
 12 56  1  0  0  0  0
 13 14  1  0  0  0  0
 13 44  1  0  0  0  0
 13 45  1  0  0  0  0
 14 16  1  0  0  0  0
 14 15  2  0  0  0  0
 16 21  1  0  0  0  0
 16 17  1  0  0  0  0
 17 18  1  0  0  0  0
 17 57  1  0  0  0  0
 17 58  1  0  0  0  0
 18 19  1  0  0  0  0
 18 59  1  0  0  0  0
 18 60  1  0  0  0  0
 19 20  1  0  0  0  0
 19 61  1  0  0  0  0
 19 62  1  0  0  0  0
 20 21  1  0  0  0  0
 20 63  1  0  0  0  0
 20 64  1  0  0  0  0
 21 22  1  0  0  0  0
 21 65  1  6  0  0  0
 22 24  1  0  0  0  0
 22 23  2  0  0  0  0
 24 25  1  0  0  0  0
 25 35  1  0  0  0  0
 25 26  1  0  0  0  0
 25 66  1  6  0  0  0
 26 27  1  0  0  0  0
 26 67  1  0  0  0  0
 26 68  1  0  0  0  0
 27 28  1  0  0  0  0
 27 69  1  0  0  0  0
 27 70  1  0  0  0  0
 28 29  1  0  0  0  0
 28 71  1  0  0  0  0
 28 72  1  0  0  0  0
 29 34  2  0  0  0  0
 29 30  1  0  0  0  0
 30 31  2  0  0  0  0
 30 73  1  0  0  0  0
 31 32  1  0  0  0  0
 32 33  2  0  0  0  0
 32 74  1  0  0  0  0
 33 34  1  0  0  0  0
 33 75  1  0  0  0  0
 34 76  1  0  0  0  0
 35 36  1  0  0  0  0
 35 77  1  0  0  0  0
 35 78  1  0  0  0  0
 36 37  1  0  0  0  0
 36 79  1  0  0  0  0
 36 80  1  0  0  0  0
 37 38  1  0  0  0  0
 37 81  1  0  0  0  0
 37 82  1  0  0  0  0
 38 43  2  0  0  0  0
 38 39  1  0  0  0  0
 39 40  2  0  0  0  0
 39 83  1  0  0  0  0
 40 41  1  0  0  0  0
 40 84  1  0  0  0  0
 41 42  2  0  0  0  0
 41 85  1  0  0  0  0
 42 43  1  0  0  0  0
 42 86  1  0  0  0  0
 43 87  1  0  0  0  0
M  END
$$$$
