00P
 OpenBabel04041914173D

 63 66  0  0  1  0  0  0  0  0999 V2000
   15.5687  -12.1721   21.3760 N   0  0  0  0  0  0  0  0  0  0  0  0
   14.6170  -11.3763   20.5914 C   0  0  0  0  0  0  0  0  0  0  0  0
   13.1407  -11.3032   21.1128 C   0  0  1  0  0  0  0  0  0  0  0  0
   12.4130  -12.6617   20.9518 C   0  0  0  0  0  0  0  0  0  0  0  0
   11.1181  -12.8148   21.7724 C   0  0  0  0  0  0  0  0  0  0  0  0
   11.4316  -12.4461   23.2111 C   0  0  1  0  0  0  0  0  0  0  0  0
   11.7118  -10.9500   23.2588 C   0  0  0  0  0  0  0  0  0  0  0  0
   13.0509  -10.7007   22.5391 C   0  0  0  0  0  0  0  0  0  0  0  0
   10.3424  -12.8322   24.1459 N   0  3  0  0  0  0  0  0  0  0  0  0
   17.3450  -16.9158   24.3569 C   0  0  0  0  0  0  0  0  0  0  0  0
   17.9305  -15.9439   23.4555 N   0  3  0  0  0  0  0  0  0  0  0  0
   19.0097  -16.1973   22.5985 C   0  0  0  0  0  0  0  0  0  0  0  0
   19.7138  -17.1953   22.5327 O   0  0  0  0  0  0  0  0  0  0  0  0
   19.1962  -15.0461   21.8409 N   0  3  0  0  0  0  0  0  0  0  0  0
   18.2238  -14.1311   22.2257 N   0  0  0  0  0  0  0  0  0  0  0  0
   17.4341  -14.6966   23.1991 C   0  0  0  0  0  0  0  0  0  0  0  0
   16.4416  -14.1535   23.7033 O   0  0  0  0  0  0  0  0  0  0  0  0
   20.4378  -14.5928   21.2469 C   0  0  0  0  0  0  0  0  0  0  0  0
   20.1350  -13.4797   20.2897 C   0  0  0  0  0  0  0  0  0  0  0  0
   19.0175  -12.7413   20.4123 C   0  0  0  0  0  0  0  0  0  0  0  0
   17.9801  -12.8986   21.5010 C   0  0  1  0  0  0  0  0  0  0  0  0
   16.5764  -12.9648   20.8321 C   0  0  0  0  0  0  0  0  0  0  0  0
   16.3398  -13.7551   19.9036 O   0  0  0  0  0  0  0  0  0  0  0  0
   16.9371  -16.4032   25.7289 C   0  0  0  0  0  0  0  0  0  0  0  0
   18.2546  -17.0840   26.7588 S   0  0  0  0  0  0  0  0  0  0  0  0
   17.8851  -16.8594   28.1601 O   0  0  0  0  0  0  0  0  0  0  0  0
   18.5382  -18.3944   26.3196 O   0  0  0  0  0  0  0  0  0  0  0  0
   19.6981  -16.0892   26.4604 C   0  0  0  0  0  0  0  0  0  0  0  0
   20.2516  -15.2947   27.4182 C   0  0  0  0  0  0  0  0  0  0  0  0
   21.4501  -14.6315   27.1534 C   0  0  0  0  0  0  0  0  0  0  0  0
   22.0852  -14.7737   25.9193 C   0  0  0  0  0  0  0  0  0  0  0  0
   21.5440  -15.5879   24.9409 C   0  0  0  0  0  0  0  0  0  0  0  0
   20.3686  -16.2635   25.2400 C   0  0  0  0  0  0  0  0  0  0  0  0
   15.5005  -12.1672   22.3806 H   0  0  0  0  0  0  0  0  0  0  0  0
   14.6237  -11.7579   19.5607 H   0  0  0  0  0  0  0  0  0  0  0  0
   15.0278  -10.3547   20.5728 H   0  0  0  0  0  0  0  0  0  0  0  0
   12.6219  -10.5962   20.4486 H   0  0  0  0  0  0  0  0  0  0  0  0
   13.0998  -13.4618   21.2508 H   0  0  0  0  0  0  0  0  0  0  0  0
   12.1754  -12.8097   19.8911 H   0  0  0  0  0  0  0  0  0  0  0  0
   10.7450  -13.8472   21.7008 H   0  0  0  0  0  0  0  0  0  0  0  0
   10.3364  -12.1561   21.3684 H   0  0  0  0  0  0  0  0  0  0  0  0
   12.3010  -13.0092   23.5582 H   0  0  0  0  0  0  0  0  0  0  0  0
   11.7622  -10.5933   24.2968 H   0  0  0  0  0  0  0  0  0  0  0  0
   10.9055  -10.3913   22.7633 H   0  0  0  0  0  0  0  0  0  0  0  0
   13.2301   -9.6203   22.4789 H   0  0  0  0  0  0  0  0  0  0  0  0
   13.8476  -11.1296   23.1533 H   0  0  0  0  0  0  0  0  0  0  0  0
   10.5864  -12.5827   25.1118 H   0  0  0  0  0  0  0  0  0  0  0  0
    9.4528  -12.3741   23.9165 H   0  0  0  0  0  0  0  0  0  0  0  0
   18.0795  -17.7075   24.4495 H   0  0  0  0  0  0  0  0  0  0  0  0
   16.4905  -17.3913   23.8698 H   0  0  0  0  0  0  0  0  0  0  0  0
   20.9140  -15.4311   20.7285 H   0  0  0  0  0  0  0  0  0  0  0  0
   21.1169  -14.2394   22.0306 H   0  0  0  0  0  0  0  0  0  0  0  0
   20.8263  -13.2767   19.4805 H   0  0  0  0  0  0  0  0  0  0  0  0
   18.8104  -11.9983   19.6423 H   0  0  0  0  0  0  0  0  0  0  0  0
   18.0422  -12.0557   22.2023 H   0  0  0  0  0  0  0  0  0  0  0  0
   16.8698  -15.3051   25.7857 H   0  0  0  0  0  0  0  0  0  0  0  0
   15.9607  -16.8154   26.0332 H   0  0  0  0  0  0  0  0  0  0  0  0
   19.7733  -15.1889   28.3874 H   0  0  0  0  0  0  0  0  0  0  0  0
   21.8967  -13.9961   27.9145 H   0  0  0  0  0  0  0  0  0  0  0  0
   23.0159  -14.2506   25.7235 H   0  0  0  0  0  0  0  0  0  0  0  0
   22.0280  -15.7155   23.9788 H   0  0  0  0  0  0  0  0  0  0  0  0
   19.9794  -16.9540   24.5284 H   0  0  0  0  0  0  0  0  0  0  0  0
   10.1866  -13.8484   24.1330 H   0  0  0  0  0  0  0  0  0  0  0  0
  1  2  1  0  0  0  0
  1 22  1  0  0  0  0
  1 34  1  0  0  0  0
  2  3  1  0  0  0  0
  2 35  1  0  0  0  0
  2 36  1  0  0  0  0
  3  8  1  0  0  0  0
  3  4  1  0  0  0  0
  3 37  1  6  0  0  0
  4  5  1  0  0  0  0
  4 38  1  0  0  0  0
  4 39  1  0  0  0  0
  5  6  1  0  0  0  0
  5 40  1  0  0  0  0
  5 41  1  0  0  0  0
  6  9  1  0  0  0  0
  6  7  1  0  0  0  0
  6 42  1  1  0  0  0
  7  8  1  0  0  0  0
  7 43  1  0  0  0  0
  7 44  1  0  0  0  0
  8 45  1  0  0  0  0
  8 46  1  0  0  0  0
  9 47  1  0  0  0  0
  9 48  1  0  0  0  0
  9 63  1  0  0  0  0
 10 11  1  0  0  0  0
 10 24  1  0  0  0  0
 10 49  1  0  0  0  0
 10 50  1  0  0  0  0
 11 16  1  0  0  0  0
 11 12  1  0  0  0  0
 12 14  1  0  0  0  0
 12 13  2  0  0  0  0
 14 18  1  0  0  0  0
 14 15  1  0  0  0  0
 15 21  1  0  0  0  0
 15 16  1  0  0  0  0
 16 17  2  0  0  0  0
 18 19  1  0  0  0  0
 18 51  1  0  0  0  0
 18 52  1  0  0  0  0
 19 20  2  0  0  0  0
 19 53  1  0  0  0  0
 20 21  1  0  0  0  0
 20 54  1  0  0  0  0
 21 22  1  0  0  0  0
 21 55  1  1  0  0  0
 22 23  2  0  0  0  0
 24 25  1  0  0  0  0
 24 56  1  0  0  0  0
 24 57  1  0  0  0  0
 25 28  1  0  0  0  0
 25 27  2  0  0  0  0
 25 26  2  0  0  0  0
 28 33  2  0  0  0  0
 28 29  1  0  0  0  0
 29 30  2  0  0  0  0
 29 58  1  0  0  0  0
 30 31  1  0  0  0  0
 30 59  1  0  0  0  0
 31 32  2  0  0  0  0
 31 60  1  0  0  0  0
 32 33  1  0  0  0  0
 32 61  1  0  0  0  0
 33 62  1  0  0  0  0
M  CHG  3   9   1  11   1  14   1
M  END
$$$$
