0D3
 OpenBabel04041915093D

 43 43  0  0  1  0  0  0  0  0999 V2000
   28.1007   59.3758   50.4260 C   0  0  0  0  0  0  0  0  0  0  0  0
   27.9032   60.4552   49.8751 O   0  0  0  0  0  0  0  0  0  0  0  0
   27.0410   58.6888   51.2726 C   0  0  2  0  0  0  0  0  0  0  0  0
   25.8184   58.4293   50.3712 C   0  0  0  0  0  0  0  0  0  0  0  0
   25.8344   57.1117   49.6190 C   0  0  0  0  0  0  0  0  0  0  0  0
   26.5857   56.0034   50.0291 C   0  0  0  0  0  0  0  0  0  0  0  0
   26.5137   54.7876   49.3575 C   0  0  0  0  0  0  0  0  0  0  0  0
   25.6781   54.6466   48.2604 C   0  0  0  0  0  0  0  0  0  0  0  0
   24.9175   55.7319   47.8297 C   0  0  0  0  0  0  0  0  0  0  0  0
   24.9908   56.9545   48.5007 C   0  0  0  0  0  0  0  0  0  0  0  0
   26.7810   59.5841   52.4869 C   0  0  0  0  0  0  0  0  0  0  0  0
   25.6465   58.8701   53.7291 S   0  0  0  0  0  0  0  0  0  0  0  0
   29.3163   58.7322   50.3870 N   0  0  0  0  0  0  0  0  0  0  0  0
   30.4052   59.2554   49.5779 C   0  0  2  0  0  0  0  0  0  0  0  0
   30.4594   58.6123   48.1712 C   0  0  0  0  0  0  0  0  0  0  0  0
   30.1631   57.4413   47.9537 O   0  0  0  0  0  0  0  0  0  0  0  0
   31.7244   59.0192   50.2898 C   0  0  0  0  0  0  0  0  0  0  0  0
   32.1019   58.3343   45.2521 C   0  0  0  0  0  0  0  0  0  0  0  0
   32.1926   57.0483   45.7031 N   0  0  0  0  0  0  0  0  0  0  0  0
   32.9038   58.7906   44.4513 O   0  0  0  0  0  0  0  0  0  0  0  0
   30.8955   59.1126   45.7827 C   0  0  0  0  0  0  0  0  0  0  0  0
   30.9645   59.4471   47.1963 N   0  0  0  0  0  0  0  0  0  0  0  0
   27.4594   57.7681   51.6823 H   0  0  0  0  0  0  0  0  0  0  0  0
   25.7223   59.2378   49.6333 H   0  0  0  0  0  0  0  0  0  0  0  0
   24.8917   58.4410   50.9527 H   0  0  0  0  0  0  0  0  0  0  0  0
   27.2383   56.0314   50.8947 H   0  0  0  0  0  0  0  0  0  0  0  0
   27.1114   53.9486   49.7068 H   0  0  0  0  0  0  0  0  0  0  0  0
   25.6180   53.6924   47.7441 H   0  0  0  0  0  0  0  0  0  0  0  0
   24.2595   55.6198   46.9706 H   0  0  0  0  0  0  0  0  0  0  0  0
   24.3811   57.7833   48.1515 H   0  0  0  0  0  0  0  0  0  0  0  0
   26.4251   60.5746   52.1886 H   0  0  0  0  0  0  0  0  0  0  0  0
   27.7315   59.7266   53.0152 H   0  0  0  0  0  0  0  0  0  0  0  0
   24.5212   58.8831   52.9989 H   0  0  0  0  0  0  0  0  0  0  0  0
   29.3799   57.7682   50.6910 H   0  0  0  0  0  0  0  0  0  0  0  0
   30.2562   60.3345   49.4528 H   0  0  0  0  0  0  0  0  0  0  0  0
   32.5614   59.4227   49.7131 H   0  0  0  0  0  0  0  0  0  0  0  0
   31.9005   57.9480   50.4402 H   0  0  0  0  0  0  0  0  0  0  0  0
   31.7132   59.4984   51.2744 H   0  0  0  0  0  0  0  0  0  0  0  0
   32.9229   56.4557   45.3350 H   0  0  0  0  0  0  0  0  0  0  0  0
   31.4334   56.6293   46.2348 H   0  0  0  0  0  0  0  0  0  0  0  0
   29.9927   58.5215   45.5956 H   0  0  0  0  0  0  0  0  0  0  0  0
   30.8184   60.0520   45.2246 H   0  0  0  0  0  0  0  0  0  0  0  0
   31.1816   60.4073   47.4330 H   0  0  0  0  0  0  0  0  0  0  0  0
  1  3  1  0  0  0  0
  1  2  2  0  0  0  0
  1 13  1  0  0  0  0
  3 11  1  0  0  0  0
  3  4  1  0  0  0  0
  3 23  1  1  0  0  0
  4  5  1  0  0  0  0
  4 24  1  0  0  0  0
  4 25  1  0  0  0  0
  5 10  2  0  0  0  0
  5  6  1  0  0  0  0
  6  7  2  0  0  0  0
  6 26  1  0  0  0  0
  7  8  1  0  0  0  0
  7 27  1  0  0  0  0
  8  9  2  0  0  0  0
  8 28  1  0  0  0  0
  9 10  1  0  0  0  0
  9 29  1  0  0  0  0
 10 30  1  0  0  0  0
 11 12  1  0  0  0  0
 11 31  1  0  0  0  0
 11 32  1  0  0  0  0
 12 33  1  0  0  0  0
 13 14  1  0  0  0  0
 13 34  1  0  0  0  0
 14 15  1  0  0  0  0
 14 17  1  0  0  0  0
 14 35  1  6  0  0  0
 15 16  2  0  0  0  0
 15 22  1  0  0  0  0
 17 36  1  0  0  0  0
 17 37  1  0  0  0  0
 17 38  1  0  0  0  0
 18 21  1  0  0  0  0
 18 20  2  0  0  0  0
 18 19  1  0  0  0  0
 19 39  1  0  0  0  0
 19 40  1  0  0  0  0
 21 22  1  0  0  0  0
 21 41  1  0  0  0  0
 21 42  1  0  0  0  0
 22 43  1  0  0  0  0
M  END
$$$$
