0P1
 OpenBabel04041916233D

 81 82  0  0  1  0  0  0  0  0999 V2000
   16.8987    5.0197   18.9352 C   0  0  0  0  0  0  0  0  0  0  0  0
   16.8321    4.7304   20.1065 O   0  0  0  0  0  0  0  0  0  0  0  0
   15.8791    5.0420   18.0453 O   0  0  0  0  0  0  0  0  0  0  0  0
   14.5945    4.8938   18.7078 C   0  0  0  0  0  0  0  0  0  0  0  0
   14.0205    3.5168   18.4995 C   0  0  0  0  0  0  0  0  0  0  0  0
   13.3937    2.8395   19.5582 C   0  0  0  0  0  0  0  0  0  0  0  0
   14.0664    2.9182   17.2362 C   0  0  0  0  0  0  0  0  0  0  0  0
   12.8472    1.5714   19.3585 C   0  0  0  0  0  0  0  0  0  0  0  0
   13.5239    1.6506   17.0398 C   0  0  0  0  0  0  0  0  0  0  0  0
   12.9124    0.9789   18.0978 C   0  0  0  0  0  0  0  0  0  0  0  0
   18.0692    5.4157   18.3244 N   0  0  0  0  0  0  0  0  0  0  0  0
   19.2032    5.7568   19.1675 C   0  0  2  0  0  0  0  0  0  0  0  0
   18.9734    7.0774   19.9501 C   0  0  0  0  0  0  0  0  0  0  0  0
   18.1771    7.9253   19.5666 O   0  0  0  0  0  0  0  0  0  0  0  0
   20.4061    5.9346   18.2610 C   0  0  0  0  0  0  0  0  0  0  0  0
   19.7870    7.2638   21.0395 N   0  0  0  0  0  0  0  0  0  0  0  0
   19.7717    8.5178   21.7948 C   0  0  2  0  0  0  0  0  0  0  0  0
   21.2333    8.8654   22.0968 C   0  0  0  0  0  0  0  0  0  0  0  0
   21.8200    8.4003   23.0778 O   0  0  0  0  0  0  0  0  0  0  0  0
   18.9370    8.3730   23.0568 C   0  0  0  0  0  0  0  0  0  0  0  0
   23.2991    9.8853   21.1322 C   0  0  2  0  0  0  0  0  0  0  0  0
   24.0315    9.3772   19.8874 C   0  0  0  0  0  0  0  0  0  0  0  0
   23.7873    7.8996   19.5418 C   0  0  0  0  0  0  0  0  0  0  0  0
   24.5001    7.5862   18.2272 C   0  0  0  0  0  0  0  0  0  0  0  0
   24.2582    6.9642   20.6535 C   0  0  0  0  0  0  0  0  0  0  0  0
   21.8787    9.5191   21.0687 N   0  0  0  0  0  0  0  0  0  0  0  0
   23.4674   11.7505   21.2583 P   0  0  2  0  0  0  0  0  0  0  0  0
   22.4591   12.3699   20.3042 O   0  0  0  0  0  0  0  0  0  0  0  0
   24.9371   12.1231   21.2011 O   0  0  0  0  0  0  0  0  0  0  0  0
   23.4897   13.0002   23.5612 C   0  0  1  0  0  0  0  0  0  0  0  0
   22.3476   13.9099   24.0260 C   0  0  0  0  0  0  0  0  0  0  0  0
   21.3418   13.2054   24.9087 C   0  0  0  0  0  0  0  0  0  0  0  0
   21.4058   13.3959   26.2946 C   0  0  0  0  0  0  0  0  0  0  0  0
   20.3776   12.3366   24.3813 C   0  0  0  0  0  0  0  0  0  0  0  0
   20.5292   12.7285   27.1426 C   0  0  0  0  0  0  0  0  0  0  0  0
   19.4886   11.6841   25.2344 C   0  0  0  0  0  0  0  0  0  0  0  0
   19.5717   11.8692   26.6133 C   0  0  0  0  0  0  0  0  0  0  0  0
   24.2892   12.4262   24.7513 C   0  0  0  0  0  0  0  0  0  0  0  0
   25.6854   12.9927   26.5762 C   0  0  0  0  0  0  0  0  0  0  0  0
   22.9315   11.9695   22.7660 O   0  0  0  0  0  0  0  0  0  0  0  0
   24.7447   13.4241   25.5813 O   0  0  0  0  0  0  0  0  0  0  0  0
   24.5417   11.2373   24.9402 O   0  0  0  0  0  0  0  0  0  0  0  0
   13.9173    5.6332   18.2707 H   0  0  0  0  0  0  0  0  0  0  0  0
   14.6551    5.1220   19.7756 H   0  0  0  0  0  0  0  0  0  0  0  0
   13.3349    3.2923   20.5466 H   0  0  0  0  0  0  0  0  0  0  0  0
   14.5357    3.4408   16.4077 H   0  0  0  0  0  0  0  0  0  0  0  0
   12.3809    1.0441   20.1850 H   0  0  0  0  0  0  0  0  0  0  0  0
   13.5878    1.1857   16.0582 H   0  0  0  0  0  0  0  0  0  0  0  0
   12.4882   -0.0079   17.9399 H   0  0  0  0  0  0  0  0  0  0  0  0
   18.0124    5.7813   17.3943 H   0  0  0  0  0  0  0  0  0  0  0  0
   19.3679    4.9469   19.8897 H   0  0  0  0  0  0  0  0  0  0  0  0
   21.3238    6.1132   18.8227 H   0  0  0  0  0  0  0  0  0  0  0  0
   20.2431    6.7890   17.5918 H   0  0  0  0  0  0  0  0  0  0  0  0
   20.5419    5.0460   17.6348 H   0  0  0  0  0  0  0  0  0  0  0  0
   20.4455    6.5515   21.3427 H   0  0  0  0  0  0  0  0  0  0  0  0
   19.3416    9.3129   21.1779 H   0  0  0  0  0  0  0  0  0  0  0  0
   18.9375    9.3078   23.6162 H   0  0  0  0  0  0  0  0  0  0  0  0
   19.3133    7.5894   23.7246 H   0  0  0  0  0  0  0  0  0  0  0  0
   17.8962    8.1302   22.8116 H   0  0  0  0  0  0  0  0  0  0  0  0
   23.7535    9.4797   22.0411 H   0  0  0  0  0  0  0  0  0  0  0  0
   25.1062    9.5452   20.0280 H   0  0  0  0  0  0  0  0  0  0  0  0
   23.7374    9.9927   19.0271 H   0  0  0  0  0  0  0  0  0  0  0  0
   22.7150    7.7361   19.3835 H   0  0  0  0  0  0  0  0  0  0  0  0
   24.3468    6.5462   17.9262 H   0  0  0  0  0  0  0  0  0  0  0  0
   25.5764    7.7674   18.3170 H   0  0  0  0  0  0  0  0  0  0  0  0
   24.1182    8.2281   17.4250 H   0  0  0  0  0  0  0  0  0  0  0  0
   23.7209    7.1513   21.5875 H   0  0  0  0  0  0  0  0  0  0  0  0
   25.3271    7.0954   20.8498 H   0  0  0  0  0  0  0  0  0  0  0  0
   24.0846    5.9166   20.3870 H   0  0  0  0  0  0  0  0  0  0  0  0
   21.3477    9.9665   20.3270 H   0  0  0  0  0  0  0  0  0  0  0  0
   24.1825   13.6080   22.9708 H   0  0  0  0  0  0  0  0  0  0  0  0
   21.8167   14.3346   23.1636 H   0  0  0  0  0  0  0  0  0  0  0  0
   22.7568   14.7663   24.5772 H   0  0  0  0  0  0  0  0  0  0  0  0
   22.1603   14.0554   26.7131 H   0  0  0  0  0  0  0  0  0  0  0  0
   20.3341   12.1478   23.3072 H   0  0  0  0  0  0  0  0  0  0  0  0
   20.6003   12.8811   28.2138 H   0  0  0  0  0  0  0  0  0  0  0  0
   18.7296   11.0258   24.8284 H   0  0  0  0  0  0  0  0  0  0  0  0
   18.8940   11.3374   27.2727 H   0  0  0  0  0  0  0  0  0  0  0  0
   25.8688   13.8251   27.2638 H   0  0  0  0  0  0  0  0  0  0  0  0
   26.6324   12.7437   26.0901 H   0  0  0  0  0  0  0  0  0  0  0  0
   25.3257   12.1433   27.1694 H   0  0  0  0  0  0  0  0  0  0  0  0
  1  2  2  0  0  0  0
  1  3  1  0  0  0  0
  1 11  1  0  0  0  0
  3  4  1  0  0  0  0
  4  5  1  0  0  0  0
  4 43  1  0  0  0  0
  4 44  1  0  0  0  0
  5  6  2  0  0  0  0
  5  7  1  0  0  0  0
  6  8  1  0  0  0  0
  6 45  1  0  0  0  0
  7  9  2  0  0  0  0
  7 46  1  0  0  0  0
  8 10  2  0  0  0  0
  8 47  1  0  0  0  0
  9 10  1  0  0  0  0
  9 48  1  0  0  0  0
 10 49  1  0  0  0  0
 11 12  1  0  0  0  0
 11 50  1  0  0  0  0
 12 15  1  0  0  0  0
 12 13  1  0  0  0  0
 12 51  1  1  0  0  0
 13 14  2  0  0  0  0
 13 16  1  0  0  0  0
 15 52  1  0  0  0  0
 15 53  1  0  0  0  0
 15 54  1  0  0  0  0
 16 17  1  0  0  0  0
 16 55  1  0  0  0  0
 17 20  1  0  0  0  0
 17 18  1  0  0  0  0
 17 56  1  6  0  0  0
 18 19  2  0  0  0  0
 18 26  1  0  0  0  0
 20 57  1  0  0  0  0
 20 58  1  0  0  0  0
 20 59  1  0  0  0  0
 21 22  1  0  0  0  0
 21 26  1  0  0  0  0
 21 27  1  0  0  0  0
 21 60  1  1  0  0  0
 22 23  1  0  0  0  0
 22 61  1  0  0  0  0
 22 62  1  0  0  0  0
 23 24  1  0  0  0  0
 23 25  1  0  0  0  0
 23 63  1  0  0  0  0
 24 64  1  0  0  0  0
 24 65  1  0  0  0  0
 24 66  1  0  0  0  0
 25 67  1  0  0  0  0
 25 68  1  0  0  0  0
 25 69  1  0  0  0  0
 26 70  1  0  0  0  0
 27 28  2  6  0  0  0
 27 29  1  0  0  0  0
 27 40  1  0  0  0  0
 30 31  1  0  0  0  0
 30 38  1  0  0  0  0
 30 40  1  0  0  0  0
 30 71  1  6  0  0  0
 31 32  1  0  0  0  0
 31 72  1  0  0  0  0
 31 73  1  0  0  0  0
 32 33  2  0  0  0  0
 32 34  1  0  0  0  0
 33 35  1  0  0  0  0
 33 74  1  0  0  0  0
 34 36  2  0  0  0  0
 34 75  1  0  0  0  0
 35 37  2  0  0  0  0
 35 76  1  0  0  0  0
 36 37  1  0  0  0  0
 36 77  1  0  0  0  0
 37 78  1  0  0  0  0
 38 41  1  0  0  0  0
 38 42  2  0  0  0  0
 39 41  1  0  0  0  0
 39 79  1  0  0  0  0
 39 80  1  0  0  0  0
 39 81  1  0  0  0  0
M  END
$$$$
