0Q4
 OpenBabel04041913533D

128128  0  0  1  0  0  0  0  0999 V2000
   50.8550   20.5865   27.1638 N   0  3  0  0  0  0  0  0  0  0  0  0
   51.6006   19.8487   28.2146 C   0  0  2  0  0  0  0  0  0  0  0  0
   53.0884   20.2028   28.1611 C   0  0  0  0  0  0  0  0  0  0  0  0
   53.6250   20.4639   27.0993 O   0  0  0  0  0  0  0  0  0  0  0  0
   51.4507   18.3328   28.0253 C   0  0  0  0  0  0  0  0  0  0  0  0
   50.0768   17.7562   28.3757 C   0  0  0  0  0  0  0  0  0  0  0  0
   49.6134   18.0586   29.8042 C   0  0  0  0  0  0  0  0  0  0  0  0
   48.3348   17.4296   30.1334 N   0  0  0  0  0  0  0  0  0  0  0  0
   48.1288   16.0946   30.1979 C   0  0  0  0  0  0  0  0  0  0  0  0
   49.1158   15.2258   29.9560 N   0  0  0  0  0  0  0  0  0  0  0  0
   46.9242   15.6250   30.4988 N   0  0  0  0  0  0  0  0  0  0  0  0
   53.6914   20.2306   29.3979 N   0  0  0  0  0  0  0  0  0  0  0  0
   55.0717   20.6260   29.5896 C   0  0  2  0  0  0  0  0  0  0  0  0
   55.6506   19.4759   30.4360 C   0  0  0  0  0  0  0  0  0  0  0  0
   55.2740   19.3079   31.5912 O   0  0  0  0  0  0  0  0  0  0  0  0
   55.1682   21.9271   30.3972 C   0  0  0  0  0  0  0  0  0  0  0  0
   56.6076   22.4294   30.4005 C   0  0  0  0  0  0  0  0  0  0  0  0
   54.2345   23.0032   29.8377 C   0  0  0  0  0  0  0  0  0  0  0  0
   56.4073   18.5726   29.7490 N   0  0  0  0  0  0  0  0  0  0  0  0
   56.8071   17.3034   30.3699 C   0  0  2  0  0  0  0  0  0  0  0  0
   58.2618   17.2860   30.8191 C   0  0  0  0  0  0  0  0  0  0  0  0
   58.9039   16.2510   30.9071 O   0  0  0  0  0  0  0  0  0  0  0  0
   56.5238   16.1366   29.4279 C   0  0  0  0  0  0  0  0  0  0  0  0
   55.0481   16.1587   29.0171 C   0  0  0  0  0  0  0  0  0  0  0  0
   54.7898   15.2829   27.8051 C   0  0  0  0  0  0  0  0  0  0  0  0
   54.1747   15.7555   30.2028 C   0  0  0  0  0  0  0  0  0  0  0  0
   58.6977   18.4988   31.2908 N   0  0  0  0  0  0  0  0  0  0  0  0
   59.9435   18.5860   32.0475 C   0  0  2  0  0  0  0  0  0  0  0  0
   59.8486   17.6342   33.2539 C   0  0  0  0  0  0  0  0  0  0  0  0
   58.8197   17.4822   33.8986 O   0  0  0  0  0  0  0  0  0  0  0  0
   60.1279   20.0390   32.5015 C   0  0  0  0  0  0  0  0  0  0  0  0
   61.0383   20.2123   33.6787 C   0  0  0  0  0  0  0  0  0  0  0  0
   62.4174   20.0445   33.5349 C   0  0  0  0  0  0  0  0  0  0  0  0
   60.4877   20.4385   34.9497 C   0  0  0  0  0  0  0  0  0  0  0  0
   63.2351   20.0892   34.6572 C   0  0  0  0  0  0  0  0  0  0  0  0
   61.3077   20.4811   36.0688 C   0  0  0  0  0  0  0  0  0  0  0  0
   62.6791   20.3154   35.9177 C   0  0  0  0  0  0  0  0  0  0  0  0
   61.0231   16.9517   33.5353 N   0  0  0  0  0  0  0  0  0  0  0  0
   61.0835   15.9202   34.5677 C   0  0  2  0  0  0  0  0  0  0  0  0
   62.5271   15.9928   35.0550 C   0  0  0  0  0  0  0  0  0  0  0  0
   63.4898   15.9700   34.2895 O   0  0  0  0  0  0  0  0  0  0  0  0
   60.6739   14.5642   34.0055 C   0  0  0  0  0  0  0  0  0  0  0  0
   60.8624   13.3945   34.9737 C   0  0  0  0  0  0  0  0  0  0  0  0
   62.3157   12.9268   35.1197 C   0  0  0  0  0  0  0  0  0  0  0  0
   63.0424   13.0678   34.1007 O   0  0  0  0  0  0  0  0  0  0  0  0
   62.6101   12.4529   36.2519 O   0  0  0  0  0  0  0  0  0  0  0  0
   62.6477   16.2922   36.3891 N   0  0  0  0  0  0  0  0  0  0  0  0
   63.9574   16.3099   36.9824 C   0  0  2  0  0  0  0  0  0  0  0  0
   64.0121   15.3085   38.1265 C   0  0  0  0  0  0  0  0  0  0  0  0
   63.0600   15.1141   38.8737 O   0  0  0  0  0  0  0  0  0  0  0  0
   64.2595   17.6965   37.5003 C   0  0  0  0  0  0  0  0  0  0  0  0
   65.2855   14.8086   38.3169 N   0  0  0  0  0  0  0  0  0  0  0  0
   65.5306   13.6921   39.2144 C   0  0  2  0  0  0  0  0  0  0  0  0
   64.8203   13.8681   40.5645 C   0  0  0  0  0  0  0  0  0  0  0  0
   65.0253   14.8004   41.3319 O   0  0  0  0  0  0  0  0  0  0  0  0
   67.0293   13.6625   39.5072 C   0  0  0  0  0  0  0  0  0  0  0  0
   67.8188   13.0464   38.3596 C   0  0  0  0  0  0  0  0  0  0  0  0
   67.7743   11.5228   38.4172 C   0  0  0  0  0  0  0  0  0  0  0  0
   68.9058   10.9399   37.5956 C   0  0  0  0  0  0  0  0  0  0  0  0
   63.9394   12.8580   40.8571 N   0  0  0  0  0  0  0  0  0  0  0  0
   49.8507   20.3874   27.1257 H   0  0  0  0  0  0  0  0  0  0  0  0
   50.9781   21.6018   27.2946 H   0  0  0  0  0  0  0  0  0  0  0  0
   51.1968   20.1778   29.1707 H   0  0  0  0  0  0  0  0  0  0  0  0
   52.2016   17.8136   28.6330 H   0  0  0  0  0  0  0  0  0  0  0  0
   51.6796   18.0669   26.9849 H   0  0  0  0  0  0  0  0  0  0  0  0
   50.1478   16.6765   28.2132 H   0  0  0  0  0  0  0  0  0  0  0  0
   49.3206   18.1020   27.6635 H   0  0  0  0  0  0  0  0  0  0  0  0
   49.4613   19.1344   29.9282 H   0  0  0  0  0  0  0  0  0  0  0  0
   50.3546   17.7504   30.5514 H   0  0  0  0  0  0  0  0  0  0  0  0
   47.5551   18.0101   30.4326 H   0  0  0  0  0  0  0  0  0  0  0  0
   48.9533   14.2353   29.9724 H   0  0  0  0  0  0  0  0  0  0  0  0
   46.1374   16.2237   30.7276 H   0  0  0  0  0  0  0  0  0  0  0  0
   46.7451   14.6285   30.5356 H   0  0  0  0  0  0  0  0  0  0  0  0
   53.1810   20.0735   30.2529 H   0  0  0  0  0  0  0  0  0  0  0  0
   55.5946   20.7024   28.6234 H   0  0  0  0  0  0  0  0  0  0  0  0
   54.8644   21.7479   31.4381 H   0  0  0  0  0  0  0  0  0  0  0  0
   56.6935   23.3553   30.9781 H   0  0  0  0  0  0  0  0  0  0  0  0
   56.9515   22.6268   29.3796 H   0  0  0  0  0  0  0  0  0  0  0  0
   57.2798   21.6896   30.8469 H   0  0  0  0  0  0  0  0  0  0  0  0
   53.1904   22.6725   29.8545 H   0  0  0  0  0  0  0  0  0  0  0  0
   54.4998   23.2521   28.8068 H   0  0  0  0  0  0  0  0  0  0  0  0
   54.2912   23.9110   30.4453 H   0  0  0  0  0  0  0  0  0  0  0  0
   56.6040   18.6928   28.7606 H   0  0  0  0  0  0  0  0  0  0  0  0
   56.2295   17.1744   31.2913 H   0  0  0  0  0  0  0  0  0  0  0  0
   56.7653   15.1864   29.9271 H   0  0  0  0  0  0  0  0  0  0  0  0
   57.1828   16.1991   28.5517 H   0  0  0  0  0  0  0  0  0  0  0  0
   54.7625   17.1726   28.7150 H   0  0  0  0  0  0  0  0  0  0  0  0
   53.7340   15.3443   27.5260 H   0  0  0  0  0  0  0  0  0  0  0  0
   55.0467   14.2399   28.0016 H   0  0  0  0  0  0  0  0  0  0  0  0
   55.3809   15.6351   26.9517 H   0  0  0  0  0  0  0  0  0  0  0  0
   54.3612   16.3863   31.0777 H   0  0  0  0  0  0  0  0  0  0  0  0
   54.3741   14.7205   30.4971 H   0  0  0  0  0  0  0  0  0  0  0  0
   53.1178   15.8665   29.9585 H   0  0  0  0  0  0  0  0  0  0  0  0
   58.0563   19.2789   31.2998 H   0  0  0  0  0  0  0  0  0  0  0  0
   60.7479   18.2776   31.3725 H   0  0  0  0  0  0  0  0  0  0  0  0
   59.1517   20.4777   32.7528 H   0  0  0  0  0  0  0  0  0  0  0  0
   60.4995   20.6405   31.6625 H   0  0  0  0  0  0  0  0  0  0  0  0
   62.8569   19.8450   32.5609 H   0  0  0  0  0  0  0  0  0  0  0  0
   59.4132   20.5462   35.0791 H   0  0  0  0  0  0  0  0  0  0  0  0
   64.3035   19.9162   34.5546 H   0  0  0  0  0  0  0  0  0  0  0  0
   60.8809   20.6215   37.0576 H   0  0  0  0  0  0  0  0  0  0  0  0
   63.3157   20.3328   36.7973 H   0  0  0  0  0  0  0  0  0  0  0  0
   61.8518   17.0477   32.9661 H   0  0  0  0  0  0  0  0  0  0  0  0
   60.4018   16.2112   35.3756 H   0  0  0  0  0  0  0  0  0  0  0  0
   61.2124   14.3693   33.0694 H   0  0  0  0  0  0  0  0  0  0  0  0
   59.6114   14.6185   33.7325 H   0  0  0  0  0  0  0  0  0  0  0  0
   60.3026   12.5335   34.5858 H   0  0  0  0  0  0  0  0  0  0  0  0
   60.4353   13.6367   35.9539 H   0  0  0  0  0  0  0  0  0  0  0  0
   61.8418   16.3144   37.0037 H   0  0  0  0  0  0  0  0  0  0  0  0
   64.7128   16.0385   36.2379 H   0  0  0  0  0  0  0  0  0  0  0  0
   65.2474   17.7573   37.9615 H   0  0  0  0  0  0  0  0  0  0  0  0
   63.5102   18.0201   38.2315 H   0  0  0  0  0  0  0  0  0  0  0  0
   64.2455   18.3849   36.6597 H   0  0  0  0  0  0  0  0  0  0  0  0
   65.8856   14.8516   37.5026 H   0  0  0  0  0  0  0  0  0  0  0  0
   65.1959   12.7668   38.7293 H   0  0  0  0  0  0  0  0  0  0  0  0
   67.2354   13.1243   40.4399 H   0  0  0  0  0  0  0  0  0  0  0  0
   67.3823   14.6913   39.6654 H   0  0  0  0  0  0  0  0  0  0  0  0
   68.8537   13.3989   38.4292 H   0  0  0  0  0  0  0  0  0  0  0  0
   67.4374   13.3817   37.3876 H   0  0  0  0  0  0  0  0  0  0  0  0
   66.8124   11.1573   38.0383 H   0  0  0  0  0  0  0  0  0  0  0  0
   67.8669   11.1753   39.4526 H   0  0  0  0  0  0  0  0  0  0  0  0
   68.8862    9.8484   37.6410 H   0  0  0  0  0  0  0  0  0  0  0  0
   69.8714   11.2817   37.9837 H   0  0  0  0  0  0  0  0  0  0  0  0
   68.8254   11.2514   36.5500 H   0  0  0  0  0  0  0  0  0  0  0  0
   63.3045   13.0272   41.6238 H   0  0  0  0  0  0  0  0  0  0  0  0
   63.6178   12.2425   40.1152 H   0  0  0  0  0  0  0  0  0  0  0  0
   51.2763   20.3969   26.2382 H   0  0  0  0  0  0  0  0  0  0  0  0
   50.0702   15.5194   29.8047 H   0  0  0  0  0  0  0  0  0  0  0  0
  1  2  1  0  0  0  0
  1 61  1  0  0  0  0
  1 62  1  0  0  0  0
  1127  1  0  0  0  0
  2  3  1  0  0  0  0
  2  5  1  0  0  0  0
  2 63  1  1  0  0  0
  3  4  2  0  0  0  0
  3 12  1  0  0  0  0
  5  6  1  0  0  0  0
  5 64  1  0  0  0  0
  5 65  1  0  0  0  0
  6  7  1  0  0  0  0
  6 66  1  0  0  0  0
  6 67  1  0  0  0  0
  7  8  1  0  0  0  0
  7 68  1  0  0  0  0
  7 69  1  0  0  0  0
  8  9  1  0  0  0  0
  8 70  1  0  0  0  0
  9 10  2  0  0  0  0
  9 11  1  0  0  0  0
 10 71  1  0  0  0  0
 10128  1  0  0  0  0
 11 72  1  0  0  0  0
 11 73  1  0  0  0  0
 12 13  1  0  0  0  0
 12 74  1  0  0  0  0
 13 14  1  0  0  0  0
 13 16  1  0  0  0  0
 13 75  1  6  0  0  0
 14 15  2  0  0  0  0
 14 19  1  0  0  0  0
 16 17  1  0  0  0  0
 16 18  1  0  0  0  0
 16 76  1  0  0  0  0
 17 77  1  0  0  0  0
 17 78  1  0  0  0  0
 17 79  1  0  0  0  0
 18 80  1  0  0  0  0
 18 81  1  0  0  0  0
 18 82  1  0  0  0  0
 19 20  1  0  0  0  0
 19 83  1  0  0  0  0
 20 21  1  0  0  0  0
 20 23  1  0  0  0  0
 20 84  1  1  0  0  0
 21 22  2  0  0  0  0
 21 27  1  0  0  0  0
 23 24  1  0  0  0  0
 23 85  1  0  0  0  0
 23 86  1  0  0  0  0
 24 26  1  0  0  0  0
 24 25  1  0  0  0  0
 24 87  1  0  0  0  0
 25 88  1  0  0  0  0
 25 89  1  0  0  0  0
 25 90  1  0  0  0  0
 26 91  1  0  0  0  0
 26 92  1  0  0  0  0
 26 93  1  0  0  0  0
 27 28  1  0  0  0  0
 27 94  1  0  0  0  0
 28 29  1  0  0  0  0
 28 31  1  0  0  0  0
 28 95  1  6  0  0  0
 29 30  2  0  0  0  0
 29 38  1  0  0  0  0
 31 32  1  0  0  0  0
 31 96  1  0  0  0  0
 31 97  1  0  0  0  0
 32 34  2  0  0  0  0
 32 33  1  0  0  0  0
 33 35  2  0  0  0  0
 33 98  1  0  0  0  0
 34 36  1  0  0  0  0
 34 99  1  0  0  0  0
 35 37  1  0  0  0  0
 35100  1  0  0  0  0
 36 37  2  0  0  0  0
 36101  1  0  0  0  0
 37102  1  0  0  0  0
 38 39  1  0  0  0  0
 38103  1  0  0  0  0
 39 40  1  0  0  0  0
 39 42  1  0  0  0  0
 39104  1  1  0  0  0
 40 41  2  0  0  0  0
 40 47  1  0  0  0  0
 42 43  1  0  0  0  0
 42105  1  0  0  0  0
 42106  1  0  0  0  0
 43 44  1  0  0  0  0
 43107  1  0  0  0  0
 43108  1  0  0  0  0
 44 45  2  0  0  0  0
 44 46  1  0  0  0  0
 47 48  1  0  0  0  0
 47109  1  0  0  0  0
 48 49  1  0  0  0  0
 48 51  1  0  0  0  0
 48110  1  6  0  0  0
 49 50  2  0  0  0  0
 49 52  1  0  0  0  0
 51111  1  0  0  0  0
 51112  1  0  0  0  0
 51113  1  0  0  0  0
 52 53  1  0  0  0  0
 52114  1  0  0  0  0
 53 56  1  0  0  0  0
 53 54  1  0  0  0  0
 53115  1  6  0  0  0
 54 55  2  0  0  0  0
 54 60  1  0  0  0  0
 56 57  1  0  0  0  0
 56116  1  0  0  0  0
 56117  1  0  0  0  0
 57 58  1  0  0  0  0
 57118  1  0  0  0  0
 57119  1  0  0  0  0
 58 59  1  0  0  0  0
 58120  1  0  0  0  0
 58121  1  0  0  0  0
 59122  1  0  0  0  0
 59123  1  0  0  0  0
 59124  1  0  0  0  0
 60125  1  0  0  0  0
 60126  1  0  0  0  0
M  CHG  1   1   1
M  END
$$$$
