0Q4
 OpenBabel04041914003D

128128  0  0  1  0  0  0  0  0999 V2000
    8.9823   16.0268   33.5800 N   0  3  0  0  0  0  0  0  0  0  0  0
    7.6997   15.6559   34.2902 C   0  0  2  0  0  0  0  0  0  0  0  0
    6.5850   16.5730   33.7295 C   0  0  0  0  0  0  0  0  0  0  0  0
    6.8141   17.7741   33.6127 O   0  0  0  0  0  0  0  0  0  0  0  0
    7.9368   15.8704   35.7987 C   0  0  0  0  0  0  0  0  0  0  0  0
    6.7811   15.3890   36.6926 C   0  0  0  0  0  0  0  0  0  0  0  0
    6.9717   13.9868   37.2911 C   0  0  0  0  0  0  0  0  0  0  0  0
    7.4958   14.0122   38.6736 N   0  0  0  0  0  0  0  0  0  0  0  0
    6.8179   14.4495   39.7579 C   0  0  0  0  0  0  0  0  0  0  0  0
    5.5639   14.8825   39.6710 N   0  0  0  0  0  0  0  0  0  0  0  0
    7.4032   14.4565   40.9587 N   0  0  0  0  0  0  0  0  0  0  0  0
    5.4334   15.9643   33.3007 N   0  0  0  0  0  0  0  0  0  0  0  0
    4.3455   16.7065   32.6199 C   0  0  2  0  0  0  0  0  0  0  0  0
    3.0323   16.2612   33.2941 C   0  0  0  0  0  0  0  0  0  0  0  0
    2.5879   15.1259   33.1508 O   0  0  0  0  0  0  0  0  0  0  0  0
    4.3396   16.4005   31.1033 C   0  0  0  0  0  0  0  0  0  0  0  0
    3.1013   16.9846   30.4133 C   0  0  0  0  0  0  0  0  0  0  0  0
    5.5886   16.9793   30.4298 C   0  0  0  0  0  0  0  0  0  0  0  0
    2.5059   17.1695   34.1828 N   0  0  0  0  0  0  0  0  0  0  0  0
    1.3047   16.9059   34.9972 C   0  0  2  0  0  0  0  0  0  0  0  0
    0.0318   17.5180   34.3726 C   0  0  0  0  0  0  0  0  0  0  0  0
   -0.8653   18.0162   35.0422 O   0  0  0  0  0  0  0  0  0  0  0  0
    1.4990   17.4371   36.4289 C   0  0  0  0  0  0  0  0  0  0  0  0
    2.8484   17.0528   37.0549 C   0  0  0  0  0  0  0  0  0  0  0  0
    2.9831   17.6214   38.4654 C   0  0  0  0  0  0  0  0  0  0  0  0
    3.0331   15.5419   37.0665 C   0  0  0  0  0  0  0  0  0  0  0  0
   -0.0653   17.3205   33.0141 N   0  0  0  0  0  0  0  0  0  0  0  0
   -1.3319   17.5797   32.3013 C   0  0  2  0  0  0  0  0  0  0  0  0
   -2.3891   16.5585   32.8050 C   0  0  0  0  0  0  0  0  0  0  0  0
   -2.1073   15.3662   32.9385 O   0  0  0  0  0  0  0  0  0  0  0  0
   -1.0183   17.4751   30.7969 C   0  0  0  0  0  0  0  0  0  0  0  0
   -2.1494   17.1892   29.8775 C   0  0  0  0  0  0  0  0  0  0  0  0
   -2.6371   15.8739   29.7378 C   0  0  0  0  0  0  0  0  0  0  0  0
   -2.7653   18.2026   29.1282 C   0  0  0  0  0  0  0  0  0  0  0  0
   -3.7195   15.5899   28.8918 C   0  0  0  0  0  0  0  0  0  0  0  0
   -3.8438   17.9204   28.2815 C   0  0  0  0  0  0  0  0  0  0  0  0
   -4.3248   16.6124   28.1803 C   0  0  0  0  0  0  0  0  0  0  0  0
   -3.6231   17.0893   33.1126 N   0  0  0  0  0  0  0  0  0  0  0  0
   -4.7013   16.3091   33.7399 C   0  0  2  0  0  0  0  0  0  0  0  0
   -6.0350   16.7059   33.0910 C   0  0  0  0  0  0  0  0  0  0  0  0
   -6.2990   17.8658   32.7743 O   0  0  0  0  0  0  0  0  0  0  0  0
   -4.7173   16.5413   35.2571 C   0  0  0  0  0  0  0  0  0  0  0  0
   -5.7912   15.7395   35.9977 C   0  0  0  0  0  0  0  0  0  0  0  0
   -7.1338   16.4684   36.1266 C   0  0  0  0  0  0  0  0  0  0  0  0
   -7.0659   17.6680   36.5074 O   0  0  0  0  0  0  0  0  0  0  0  0
   -8.1449   15.7718   35.8360 O   0  0  0  0  0  0  0  0  0  0  0  0
   -6.8758   15.6380   32.8554 N   0  0  0  0  0  0  0  0  0  0  0  0
   -8.2045   15.8437   32.3247 C   0  0  2  0  0  0  0  0  0  0  0  0
   -9.2340   14.8205   32.8510 C   0  0  0  0  0  0  0  0  0  0  0  0
   -8.9531   13.6589   33.1097 O   0  0  0  0  0  0  0  0  0  0  0  0
   -8.1487   15.7356   30.8021 C   0  0  0  0  0  0  0  0  0  0  0  0
  -10.5375   15.3126   32.7415 N   0  0  0  0  0  0  0  0  0  0  0  0
  -11.7104   14.5136   33.1340 C   0  0  2  0  0  0  0  0  0  0  0  0
  -11.7394   13.2703   32.2256 C   0  0  0  0  0  0  0  0  0  0  0  0
  -12.1698   12.1719   32.5621 O   0  0  0  0  0  0  0  0  0  0  0  0
  -12.9790   15.3930   32.9536 C   0  0  0  0  0  0  0  0  0  0  0  0
  -14.3001   14.6682   32.6457 C   0  0  0  0  0  0  0  0  0  0  0  0
  -14.5925   14.5447   31.1421 C   0  0  0  0  0  0  0  0  0  0  0  0
  -15.6997   13.5429   30.8587 C   0  0  0  0  0  0  0  0  0  0  0  0
  -11.4406   13.5287   30.9107 N   0  0  0  0  0  0  0  0  0  0  0  0
    9.8109   15.5129   33.9000 H   0  0  0  0  0  0  0  0  0  0  0  0
    8.8931   15.8910   32.5625 H   0  0  0  0  0  0  0  0  0  0  0  0
    7.5094   14.6066   34.0510 H   0  0  0  0  0  0  0  0  0  0  0  0
    8.0723   16.9457   35.9801 H   0  0  0  0  0  0  0  0  0  0  0  0
    8.8711   15.3871   36.1104 H   0  0  0  0  0  0  0  0  0  0  0  0
    5.8540   15.4022   36.1130 H   0  0  0  0  0  0  0  0  0  0  0  0
    6.6551   16.1159   37.5032 H   0  0  0  0  0  0  0  0  0  0  0  0
    7.6576   13.3851   36.6846 H   0  0  0  0  0  0  0  0  0  0  0  0
    6.0206   13.4430   37.3125 H   0  0  0  0  0  0  0  0  0  0  0  0
    8.3807   13.5541   38.8646 H   0  0  0  0  0  0  0  0  0  0  0  0
    5.0559   15.2422   40.4689 H   0  0  0  0  0  0  0  0  0  0  0  0
    8.3323   14.1046   41.1253 H   0  0  0  0  0  0  0  0  0  0  0  0
    6.9006   14.8060   41.7694 H   0  0  0  0  0  0  0  0  0  0  0  0
    5.2781   14.9623   33.3731 H   0  0  0  0  0  0  0  0  0  0  0  0
    4.4885   17.7804   32.7794 H   0  0  0  0  0  0  0  0  0  0  0  0
    4.3368   15.3130   30.9438 H   0  0  0  0  0  0  0  0  0  0  0  0
    3.1322   16.7989   29.3343 H   0  0  0  0  0  0  0  0  0  0  0  0
    3.0386   18.0666   30.5702 H   0  0  0  0  0  0  0  0  0  0  0  0
    2.1802   16.5317   30.7895 H   0  0  0  0  0  0  0  0  0  0  0  0
    6.5060   16.5547   30.8473 H   0  0  0  0  0  0  0  0  0  0  0  0
    5.6275   18.0671   30.5561 H   0  0  0  0  0  0  0  0  0  0  0  0
    5.5872   16.7651   29.3561 H   0  0  0  0  0  0  0  0  0  0  0  0
    2.8613   18.1179   34.2023 H   0  0  0  0  0  0  0  0  0  0  0  0
    1.1326   15.8227   35.0281 H   0  0  0  0  0  0  0  0  0  0  0  0
    0.6831   17.0569   37.0589 H   0  0  0  0  0  0  0  0  0  0  0  0
    1.4032   18.5302   36.4308 H   0  0  0  0  0  0  0  0  0  0  0  0
    3.6584   17.4965   36.4561 H   0  0  0  0  0  0  0  0  0  0  0  0
    3.9612   17.3697   38.8899 H   0  0  0  0  0  0  0  0  0  0  0  0
    2.2112   17.2218   39.1305 H   0  0  0  0  0  0  0  0  0  0  0  0
    2.8967   18.7130   38.4577 H   0  0  0  0  0  0  0  0  0  0  0  0
    2.9621   15.0984   36.0706 H   0  0  0  0  0  0  0  0  0  0  0  0
    2.3023   15.0525   37.7166 H   0  0  0  0  0  0  0  0  0  0  0  0
    4.0276   15.3023   37.4212 H   0  0  0  0  0  0  0  0  0  0  0  0
    0.4995   16.5618   32.6498 H   0  0  0  0  0  0  0  0  0  0  0  0
   -1.6646   18.5930   32.5549 H   0  0  0  0  0  0  0  0  0  0  0  0
   -0.2665   16.6940   30.6180 H   0  0  0  0  0  0  0  0  0  0  0  0
   -0.5161   18.3997   30.4834 H   0  0  0  0  0  0  0  0  0  0  0  0
   -2.1829   15.0564   30.2999 H   0  0  0  0  0  0  0  0  0  0  0  0
   -2.4069   19.2288   29.1939 H   0  0  0  0  0  0  0  0  0  0  0  0
   -4.0970   14.5715   28.8378 H   0  0  0  0  0  0  0  0  0  0  0  0
   -4.3167   18.7170   27.7155 H   0  0  0  0  0  0  0  0  0  0  0  0
   -5.1674   16.3915   27.5374 H   0  0  0  0  0  0  0  0  0  0  0  0
   -3.8084   18.0838   33.0348 H   0  0  0  0  0  0  0  0  0  0  0  0
   -4.5124   15.2508   33.5314 H   0  0  0  0  0  0  0  0  0  0  0  0
   -4.8184   17.6139   35.4637 H   0  0  0  0  0  0  0  0  0  0  0  0
   -3.7361   16.2496   35.6531 H   0  0  0  0  0  0  0  0  0  0  0  0
   -5.4497   15.5555   37.0237 H   0  0  0  0  0  0  0  0  0  0  0  0
   -5.9298   14.7558   35.5341 H   0  0  0  0  0  0  0  0  0  0  0  0
   -6.6678   14.7147   33.2202 H   0  0  0  0  0  0  0  0  0  0  0  0
   -8.5425   16.8460   32.6077 H   0  0  0  0  0  0  0  0  0  0  0  0
   -9.1375   15.8504   30.3489 H   0  0  0  0  0  0  0  0  0  0  0  0
   -7.7547   14.7586   30.4944 H   0  0  0  0  0  0  0  0  0  0  0  0
   -7.4862   16.5004   30.3841 H   0  0  0  0  0  0  0  0  0  0  0  0
  -10.6187   16.3173   32.8243 H   0  0  0  0  0  0  0  0  0  0  0  0
  -11.5872   14.1945   34.1758 H   0  0  0  0  0  0  0  0  0  0  0  0
  -12.8095   16.1557   32.1809 H   0  0  0  0  0  0  0  0  0  0  0  0
  -13.1112   15.9610   33.8857 H   0  0  0  0  0  0  0  0  0  0  0  0
  -15.1221   15.2498   33.0834 H   0  0  0  0  0  0  0  0  0  0  0  0
  -14.3224   13.6907   33.1381 H   0  0  0  0  0  0  0  0  0  0  0  0
  -13.7139   14.2310   30.5807 H   0  0  0  0  0  0  0  0  0  0  0  0
  -14.8725   15.5248   30.7373 H   0  0  0  0  0  0  0  0  0  0  0  0
  -15.8609   13.4526   29.7792 H   0  0  0  0  0  0  0  0  0  0  0  0
  -16.6404   13.8529   31.3217 H   0  0  0  0  0  0  0  0  0  0  0  0
  -15.4324   12.5515   31.2394 H   0  0  0  0  0  0  0  0  0  0  0  0
  -11.5201   12.7814   30.2438 H   0  0  0  0  0  0  0  0  0  0  0  0
  -11.3101   14.4859   30.6109 H   0  0  0  0  0  0  0  0  0  0  0  0
    9.1535   17.0411   33.6949 H   0  0  0  0  0  0  0  0  0  0  0  0
    5.0329   14.7609   38.8270 H   0  0  0  0  0  0  0  0  0  0  0  0
  1  2  1  0  0  0  0
  1 61  1  0  0  0  0
  1 62  1  0  0  0  0
  1127  1  0  0  0  0
  2  3  1  0  0  0  0
  2  5  1  0  0  0  0
  2 63  1  6  0  0  0
  3  4  2  0  0  0  0
  3 12  1  0  0  0  0
  5  6  1  0  0  0  0
  5 64  1  0  0  0  0
  5 65  1  0  0  0  0
  6  7  1  0  0  0  0
  6 66  1  0  0  0  0
  6 67  1  0  0  0  0
  7  8  1  0  0  0  0
  7 68  1  0  0  0  0
  7 69  1  0  0  0  0
  8  9  1  0  0  0  0
  8 70  1  0  0  0  0
  9 10  2  0  0  0  0
  9 11  1  0  0  0  0
 10 71  1  0  0  0  0
 10128  1  0  0  0  0
 11 72  1  0  0  0  0
 11 73  1  0  0  0  0
 12 13  1  0  0  0  0
 12 74  1  0  0  0  0
 13 14  1  0  0  0  0
 13 16  1  0  0  0  0
 13 75  1  1  0  0  0
 14 15  2  0  0  0  0
 14 19  1  0  0  0  0
 16 17  1  0  0  0  0
 16 18  1  0  0  0  0
 16 76  1  0  0  0  0
 17 77  1  0  0  0  0
 17 78  1  0  0  0  0
 17 79  1  0  0  0  0
 18 80  1  0  0  0  0
 18 81  1  0  0  0  0
 18 82  1  0  0  0  0
 19 20  1  0  0  0  0
 19 83  1  0  0  0  0
 20 21  1  0  0  0  0
 20 23  1  0  0  0  0
 20 84  1  1  0  0  0
 21 22  2  0  0  0  0
 21 27  1  0  0  0  0
 23 24  1  0  0  0  0
 23 85  1  0  0  0  0
 23 86  1  0  0  0  0
 24 26  1  0  0  0  0
 24 25  1  0  0  0  0
 24 87  1  0  0  0  0
 25 88  1  0  0  0  0
 25 89  1  0  0  0  0
 25 90  1  0  0  0  0
 26 91  1  0  0  0  0
 26 92  1  0  0  0  0
 26 93  1  0  0  0  0
 27 28  1  0  0  0  0
 27 94  1  0  0  0  0
 28 29  1  0  0  0  0
 28 31  1  0  0  0  0
 28 95  1  1  0  0  0
 29 30  2  0  0  0  0
 29 38  1  0  0  0  0
 31 32  1  0  0  0  0
 31 96  1  0  0  0  0
 31 97  1  0  0  0  0
 32 34  2  0  0  0  0
 32 33  1  0  0  0  0
 33 35  2  0  0  0  0
 33 98  1  0  0  0  0
 34 36  1  0  0  0  0
 34 99  1  0  0  0  0
 35 37  1  0  0  0  0
 35100  1  0  0  0  0
 36 37  2  0  0  0  0
 36101  1  0  0  0  0
 37102  1  0  0  0  0
 38 39  1  0  0  0  0
 38103  1  0  0  0  0
 39 40  1  0  0  0  0
 39 42  1  0  0  0  0
 39104  1  6  0  0  0
 40 41  2  0  0  0  0
 40 47  1  0  0  0  0
 42 43  1  0  0  0  0
 42105  1  0  0  0  0
 42106  1  0  0  0  0
 43 44  1  0  0  0  0
 43107  1  0  0  0  0
 43108  1  0  0  0  0
 44 45  2  0  0  0  0
 44 46  1  0  0  0  0
 47 48  1  0  0  0  0
 47109  1  0  0  0  0
 48 49  1  0  0  0  0
 48 51  1  0  0  0  0
 48110  1  1  0  0  0
 49 50  2  0  0  0  0
 49 52  1  0  0  0  0
 51111  1  0  0  0  0
 51112  1  0  0  0  0
 51113  1  0  0  0  0
 52 53  1  0  0  0  0
 52114  1  0  0  0  0
 53 56  1  0  0  0  0
 53 54  1  0  0  0  0
 53115  1  1  0  0  0
 54 55  2  0  0  0  0
 54 60  1  0  0  0  0
 56 57  1  0  0  0  0
 56116  1  0  0  0  0
 56117  1  0  0  0  0
 57 58  1  0  0  0  0
 57118  1  0  0  0  0
 57119  1  0  0  0  0
 58 59  1  0  0  0  0
 58120  1  0  0  0  0
 58121  1  0  0  0  0
 59122  1  0  0  0  0
 59123  1  0  0  0  0
 59124  1  0  0  0  0
 60125  1  0  0  0  0
 60126  1  0  0  0  0
M  CHG  1   1   1
M  END
$$$$
