0QH
 OpenBabel04041914023D

 73 74  0  0  1  0  0  0  0  0999 V2000
   41.1683   23.3826   37.6193 C   0  0  0  0  0  0  0  0  0  0  0  0
   41.3528   24.6284   38.5592 C   0  0  0  0  0  0  0  0  0  0  0  0
   40.7162   23.4527   36.4758 O   0  0  0  0  0  0  0  0  0  0  0  0
   41.8819   24.3360   39.7836 F   0  0  0  0  0  0  0  0  0  0  0  0
   42.1670   25.5585   38.0058 F   0  0  0  0  0  0  0  0  0  0  0  0
   40.1595   25.2383   38.7918 F   0  0  0  0  0  0  0  0  0  0  0  0
   41.4040   22.1572   38.1868 N   0  0  0  0  0  0  0  0  0  0  0  0
   40.8323   20.9190   37.7073 C   0  0  2  0  0  0  0  0  0  0  0  0
   39.2996   21.0639   37.4451 C   0  0  0  0  0  0  0  0  0  0  0  0
   38.4964   21.5599   38.1946 O   0  0  0  0  0  0  0  0  0  0  0  0
   41.0950   19.8708   38.7571 C   0  0  0  0  0  0  0  0  0  0  0  0
   41.2723   18.4420   38.2788 C   0  0  0  0  0  0  0  0  0  0  0  0
   42.2226   18.3271   37.0959 C   0  0  0  0  0  0  0  0  0  0  0  0
   41.8095   17.6658   39.4728 C   0  0  0  0  0  0  0  0  0  0  0  0
   37.8272   20.6668   35.3788 N   0  3  1  0  0  0  0  0  0  0  0  0
   39.0572   20.5384   36.1832 N   0  0  0  0  0  0  0  0  0  0  0  0
   37.7235   22.1308   34.9284 C   0  0  0  0  0  0  0  0  0  0  0  0
   36.5324   22.5385   34.0843 C   0  0  0  0  0  0  0  0  0  0  0  0
   35.7549   23.6302   34.4873 C   0  0  0  0  0  0  0  0  0  0  0  0
   34.7150   24.0820   33.6786 C   0  0  0  0  0  0  0  0  0  0  0  0
   34.4270   23.4602   32.4619 C   0  0  0  0  0  0  0  0  0  0  0  0
   35.1824   22.3711   32.0488 C   0  0  0  0  0  0  0  0  0  0  0  0
   36.2277   21.9281   32.8570 C   0  0  0  0  0  0  0  0  0  0  0  0
   38.1590   19.6967   34.2902 C   0  0  0  0  0  0  0  0  0  0  0  0
   36.5503   20.2518   36.0792 C   0  0  0  0  0  0  0  0  0  0  0  0
   36.5702   18.8938   36.7790 C   0  0  0  0  0  0  0  0  0  0  0  0
   36.6662   17.8266   36.2529 O   0  0  0  0  0  0  0  0  0  0  0  0
   36.1925   18.3194   39.1044 C   0  0  0  0  0  0  0  0  0  0  0  0
   36.4623   19.2220   38.1261 N   0  0  0  0  0  0  0  0  0  0  0  0
   36.8092   17.0801   39.1456 C   0  0  0  0  0  0  0  0  0  0  0  0
   36.5307   16.2285   40.2109 C   0  0  0  0  0  0  0  0  0  0  0  0
   35.6320   16.6113   41.2182 C   0  0  0  0  0  0  0  0  0  0  0  0
   35.0223   17.8730   41.1292 C   0  0  0  0  0  0  0  0  0  0  0  0
   35.2964   18.7297   40.0789 C   0  0  0  0  0  0  0  0  0  0  0  0
   35.2826   15.7041   42.3932 C   0  0  0  0  0  0  0  0  0  0  0  0
   35.7444   14.2531   42.2511 C   0  0  0  0  0  0  0  0  0  0  0  0
   33.7679   15.6813   42.5091 C   0  0  0  0  0  0  0  0  0  0  0  0
   42.1188   22.0949   38.9039 H   0  0  0  0  0  0  0  0  0  0  0  0
   41.3104   20.6634   36.7629 H   0  0  0  0  0  0  0  0  0  0  0  0
   40.2768   19.8824   39.4881 H   0  0  0  0  0  0  0  0  0  0  0  0
   42.0205   20.1558   39.2722 H   0  0  0  0  0  0  0  0  0  0  0  0
   40.2996   18.0297   37.9922 H   0  0  0  0  0  0  0  0  0  0  0  0
   42.3269   17.2838   36.7892 H   0  0  0  0  0  0  0  0  0  0  0  0
   43.2113   18.7252   37.3507 H   0  0  0  0  0  0  0  0  0  0  0  0
   41.8355   18.8819   36.2381 H   0  0  0  0  0  0  0  0  0  0  0  0
   41.1212   17.7643   40.3214 H   0  0  0  0  0  0  0  0  0  0  0  0
   42.7874   18.0649   39.7757 H   0  0  0  0  0  0  0  0  0  0  0  0
   41.9194   16.6096   39.2224 H   0  0  0  0  0  0  0  0  0  0  0  0
   39.8602   20.1148   35.7254 H   0  0  0  0  0  0  0  0  0  0  0  0
   38.6292   22.3229   34.3577 H   0  0  0  0  0  0  0  0  0  0  0  0
   37.7273   22.7456   35.8391 H   0  0  0  0  0  0  0  0  0  0  0  0
   35.9544   24.1455   35.4287 H   0  0  0  0  0  0  0  0  0  0  0  0
   34.1199   24.9353   33.9961 H   0  0  0  0  0  0  0  0  0  0  0  0
   33.6110   23.8305   31.8444 H   0  0  0  0  0  0  0  0  0  0  0  0
   34.9603   21.8826   31.0995 H   0  0  0  0  0  0  0  0  0  0  0  0
   36.8085   21.0998   32.4922 H   0  0  0  0  0  0  0  0  0  0  0  0
   38.1933   18.6957   34.7134 H   0  0  0  0  0  0  0  0  0  0  0  0
   39.1398   19.9688   33.9051 H   0  0  0  0  0  0  0  0  0  0  0  0
   37.4167   19.7326   33.5111 H   0  0  0  0  0  0  0  0  0  0  0  0
   35.7282   20.2069   35.3553 H   0  0  0  0  0  0  0  0  0  0  0  0
   36.2866   21.0318   36.8090 H   0  0  0  0  0  0  0  0  0  0  0  0
   36.5033   20.1950   38.4005 H   0  0  0  0  0  0  0  0  0  0  0  0
   37.5194   16.7863   38.3791 H   0  0  0  0  0  0  0  0  0  0  0  0
   37.0152   15.2654   40.2471 H   0  0  0  0  0  0  0  0  0  0  0  0
   34.3193   18.2100   41.8841 H   0  0  0  0  0  0  0  0  0  0  0  0
   34.7945   19.6901   40.0101 H   0  0  0  0  0  0  0  0  0  0  0  0
   35.7150   16.1170   43.3172 H   0  0  0  0  0  0  0  0  0  0  0  0
   35.4664   13.6636   43.1346 H   0  0  0  0  0  0  0  0  0  0  0  0
   36.8304   14.2066   42.1378 H   0  0  0  0  0  0  0  0  0  0  0  0
   35.2770   13.7921   41.3718 H   0  0  0  0  0  0  0  0  0  0  0  0
   33.3777   16.6928   42.6390 H   0  0  0  0  0  0  0  0  0  0  0  0
   33.4509   15.0892   43.3691 H   0  0  0  0  0  0  0  0  0  0  0  0
   33.3400   15.2601   41.5932 H   0  0  0  0  0  0  0  0  0  0  0  0
  1  3  2  0  0  0  0
  1  2  1  0  0  0  0
  1  7  1  0  0  0  0
  2  6  1  0  0  0  0
  2  5  1  0  0  0  0
  2  4  1  0  0  0  0
  7  8  1  0  0  0  0
  7 38  1  0  0  0  0
  8  9  1  0  0  0  0
  8 11  1  0  0  0  0
  8 39  1  6  0  0  0
  9 10  2  0  0  0  0
  9 16  1  0  0  0  0
 11 12  1  0  0  0  0
 11 40  1  0  0  0  0
 11 41  1  0  0  0  0
 12 14  1  0  0  0  0
 12 13  1  0  0  0  0
 12 42  1  0  0  0  0
 13 43  1  0  0  0  0
 13 44  1  0  0  0  0
 13 45  1  0  0  0  0
 14 46  1  0  0  0  0
 14 47  1  0  0  0  0
 14 48  1  0  0  0  0
 15 25  1  1  0  0  0
 15 24  1  0  0  0  0
 15 17  1  0  0  0  0
 15 16  1  0  0  0  0
 16 49  1  0  0  0  0
 17 18  1  0  0  0  0
 17 50  1  0  0  0  0
 17 51  1  0  0  0  0
 18 23  2  0  0  0  0
 18 19  1  0  0  0  0
 19 20  2  0  0  0  0
 19 52  1  0  0  0  0
 20 21  1  0  0  0  0
 20 53  1  0  0  0  0
 21 22  2  0  0  0  0
 21 54  1  0  0  0  0
 22 23  1  0  0  0  0
 22 55  1  0  0  0  0
 23 56  1  0  0  0  0
 24 57  1  0  0  0  0
 24 58  1  0  0  0  0
 24 59  1  0  0  0  0
 25 26  1  0  0  0  0
 25 60  1  0  0  0  0
 25 61  1  0  0  0  0
 26 27  2  0  0  0  0
 26 29  1  0  0  0  0
 28 34  2  0  0  0  0
 28 30  1  0  0  0  0
 28 29  1  0  0  0  0
 29 62  1  0  0  0  0
 30 31  2  0  0  0  0
 30 63  1  0  0  0  0
 31 32  1  0  0  0  0
 31 64  1  0  0  0  0
 32 35  1  0  0  0  0
 32 33  2  0  0  0  0
 33 34  1  0  0  0  0
 33 65  1  0  0  0  0
 34 66  1  0  0  0  0
 35 37  1  0  0  0  0
 35 36  1  0  0  0  0
 35 67  1  0  0  0  0
 36 68  1  0  0  0  0
 36 69  1  0  0  0  0
 36 70  1  0  0  0  0
 37 71  1  0  0  0  0
 37 72  1  0  0  0  0
 37 73  1  0  0  0  0
M  CHG  1  15   1
M  END
$$$$
