0Z0
 OpenBabel04041914283D

 52 53  0  0  1  0  0  0  0  0999 V2000
   40.5091   24.2427   37.1512 C   0  0  0  0  0  0  0  0  0  0  0  0
   41.0113   25.2837   38.1747 C   0  0  0  0  0  0  0  0  0  0  0  0
   39.7443   24.3988   36.1938 O   0  0  0  0  0  0  0  0  0  0  0  0
   40.1219   26.2414   38.4909 F   0  0  0  0  0  0  0  0  0  0  0  0
   42.1737   25.8616   37.7755 F   0  0  0  0  0  0  0  0  0  0  0  0
   41.3352   24.6418   39.3536 F   0  0  0  0  0  0  0  0  0  0  0  0
   41.0697   23.0554   37.5028 N   0  0  0  0  0  0  0  0  0  0  0  0
   40.6594   21.6927   37.2367 C   0  0  2  0  0  0  0  0  0  0  0  0
   39.1258   21.4671   37.4044 C   0  0  0  0  0  0  0  0  0  0  0  0
   38.4906   21.7187   38.4272 O   0  0  0  0  0  0  0  0  0  0  0  0
   41.5219   21.0062   38.2960 C   0  0  0  0  0  0  0  0  0  0  0  0
   41.2831   19.6321   38.7685 C   0  0  0  0  0  0  0  0  0  0  0  0
   40.7120   18.6634   37.9533 C   0  0  0  0  0  0  0  0  0  0  0  0
   41.7215   19.3355   40.0717 C   0  0  0  0  0  0  0  0  0  0  0  0
   40.5730   17.3798   38.4501 C   0  0  0  0  0  0  0  0  0  0  0  0
   41.5846   18.0498   40.5512 C   0  0  0  0  0  0  0  0  0  0  0  0
   41.0136   17.0765   39.7396 C   0  0  0  0  0  0  0  0  0  0  0  0
   38.5183   21.0091   36.2431 N   0  0  0  0  0  0  0  0  0  0  0  0
   37.0741   20.8558   36.0845 C   0  0  2  0  0  0  0  0  0  0  0  0
   36.5914   19.5887   36.7780 C   0  0  0  0  0  0  0  0  0  0  0  0
   36.4463   18.5372   36.1553 O   0  0  0  0  0  0  0  0  0  0  0  0
   36.6960   20.7285   34.6120 C   0  0  0  0  0  0  0  0  0  0  0  0
   36.3531   19.7774   38.1248 N   0  0  0  0  0  0  0  0  0  0  0  0
   35.9568   18.7619   38.9958 C   0  0  0  0  0  0  0  0  0  0  0  0
   35.3459   19.0995   40.1998 C   0  0  0  0  0  0  0  0  0  0  0  0
   34.9804   18.0905   41.0950 C   0  0  0  0  0  0  0  0  0  0  0  0
   35.2505   16.7410   40.8026 C   0  0  0  0  0  0  0  0  0  0  0  0
   35.8597   16.4205   39.5887 C   0  0  0  0  0  0  0  0  0  0  0  0
   36.1984   17.4250   38.6938 C   0  0  0  0  0  0  0  0  0  0  0  0
   35.0233   15.6711   41.8480 C   0  0  0  0  0  0  0  0  0  0  0  0
   34.8591   14.4225   41.3190 F   0  0  0  0  0  0  0  0  0  0  0  0
   33.9339   15.8987   42.6210 F   0  0  0  0  0  0  0  0  0  0  0  0
   36.0847   15.5835   42.6875 F   0  0  0  0  0  0  0  0  0  0  0  0
   41.7627   23.1702   38.2402 H   0  0  0  0  0  0  0  0  0  0  0  0
   40.9680   21.4266   36.2216 H   0  0  0  0  0  0  0  0  0  0  0  0
   41.4879   21.6182   39.2174 H   0  0  0  0  0  0  0  0  0  0  0  0
   42.5640   21.0672   37.9448 H   0  0  0  0  0  0  0  0  0  0  0  0
   40.3752   18.8937   36.9471 H   0  0  0  0  0  0  0  0  0  0  0  0
   42.1644   20.1107   40.7018 H   0  0  0  0  0  0  0  0  0  0  0  0
   40.1199   16.6166   37.8237 H   0  0  0  0  0  0  0  0  0  0  0  0
   41.9251   17.8134   41.5572 H   0  0  0  0  0  0  0  0  0  0  0  0
   40.9062   16.0632   40.1135 H   0  0  0  0  0  0  0  0  0  0  0  0
   39.0782   20.8947   35.4084 H   0  0  0  0  0  0  0  0  0  0  0  0
   36.5648   21.7174   36.5270 H   0  0  0  0  0  0  0  0  0  0  0  0
   35.6234   20.5229   34.5075 H   0  0  0  0  0  0  0  0  0  0  0  0
   37.2338   19.9022   34.1285 H   0  0  0  0  0  0  0  0  0  0  0  0
   36.9318   21.6476   34.0738 H   0  0  0  0  0  0  0  0  0  0  0  0
   36.4914   20.7099   38.5088 H   0  0  0  0  0  0  0  0  0  0  0  0
   35.1287   20.1393   40.4438 H   0  0  0  0  0  0  0  0  0  0  0  0
   34.5125   18.3625   42.0371 H   0  0  0  0  0  0  0  0  0  0  0  0
   36.0914   15.3908   39.3199 H   0  0  0  0  0  0  0  0  0  0  0  0
   36.7158   17.1283   37.7891 H   0  0  0  0  0  0  0  0  0  0  0  0
  1  3  2  0  0  0  0
  1  2  1  0  0  0  0
  1  7  1  0  0  0  0
  2  6  1  0  0  0  0
  2  5  1  0  0  0  0
  2  4  1  0  0  0  0
  7  8  1  0  0  0  0
  7 34  1  0  0  0  0
  8  9  1  0  0  0  0
  8 11  1  0  0  0  0
  8 35  1  6  0  0  0
  9 10  2  0  0  0  0
  9 18  1  0  0  0  0
 11 12  1  0  0  0  0
 11 36  1  0  0  0  0
 11 37  1  0  0  0  0
 12 14  2  0  0  0  0
 12 13  1  0  0  0  0
 13 15  2  0  0  0  0
 13 38  1  0  0  0  0
 14 16  1  0  0  0  0
 14 39  1  0  0  0  0
 15 17  1  0  0  0  0
 15 40  1  0  0  0  0
 16 17  2  0  0  0  0
 16 41  1  0  0  0  0
 17 42  1  0  0  0  0
 18 19  1  0  0  0  0
 18 43  1  0  0  0  0
 19 20  1  0  0  0  0
 19 22  1  0  0  0  0
 19 44  1  1  0  0  0
 20 21  2  0  0  0  0
 20 23  1  0  0  0  0
 22 45  1  0  0  0  0
 22 46  1  0  0  0  0
 22 47  1  0  0  0  0
 23 24  1  0  0  0  0
 23 48  1  0  0  0  0
 24 29  2  0  0  0  0
 24 25  1  0  0  0  0
 25 26  2  0  0  0  0
 25 49  1  0  0  0  0
 26 27  1  0  0  0  0
 26 50  1  0  0  0  0
 27 30  1  0  0  0  0
 27 28  2  0  0  0  0
 28 29  1  0  0  0  0
 28 51  1  0  0  0  0
 29 52  1  0  0  0  0
 30 33  1  0  0  0  0
 30 32  1  0  0  0  0
 30 31  1  0  0  0  0
M  END
$$$$
