0ZG
 OpenBabel04041916223D

 59 61  0  0  1  0  0  0  0  0999 V2000
   -5.9861    4.0855   23.9804 S   0  0  0  0  0  0  0  0  0  0  0  0
   -4.8048    4.0315   25.3142 C   0  0  0  0  0  0  0  0  0  0  0  0
   -4.2099    2.8325   25.7241 C   0  0  0  0  0  0  0  0  0  0  0  0
   -3.2369    2.8566   26.7360 C   0  0  0  0  0  0  0  0  0  0  0  0
   -2.8758    4.0676   27.3485 C   0  0  0  0  0  0  0  0  0  0  0  0
   -1.7897    4.1254   28.3825 C   0  0  0  0  0  0  0  0  0  0  0  0
   -3.5369    5.2430   26.9776 C   0  0  0  0  0  0  0  0  0  0  0  0
   -4.5064    5.2228   25.9793 C   0  0  0  0  0  0  0  0  0  0  0  0
   -6.9933    5.0622   24.3215 O   0  0  0  0  0  0  0  0  0  0  0  0
   -6.3336    2.7386   23.6084 O   0  0  0  0  0  0  0  0  0  0  0  0
   -2.7040    4.5387   22.8001 C   0  0  0  0  0  0  0  0  0  0  0  0
   -2.6407    5.6558   23.3324 O   0  0  0  0  0  0  0  0  0  0  0  0
   -3.9878    4.1137   22.0834 C   0  0  1  0  0  0  0  0  0  0  0  0
   -5.1714    4.7526   22.6739 N   0  0  0  0  0  0  0  0  0  0  0  0
   -3.8866    4.4434   20.5775 C   0  0  0  0  0  0  0  0  0  0  0  0
   -3.1100    5.6856   20.1860 C   0  0  0  0  0  0  0  0  0  0  0  0
   -1.7512    5.6168   19.8627 C   0  0  0  0  0  0  0  0  0  0  0  0
   -1.0481    6.7610   19.5020 C   0  0  0  0  0  0  0  0  0  0  0  0
   -1.6942    7.9905   19.4514 C   0  0  0  0  0  0  0  0  0  0  0  0
   -3.0612    8.1010   19.7717 C   0  0  0  0  0  0  0  0  0  0  0  0
   -3.7533    9.4051   19.7053 C   0  0  0  0  0  0  0  0  0  0  0  0
   -5.0335    9.4904   20.0140 N   0  0  0  0  0  0  0  0  0  0  0  0
   -3.1031   10.4730   19.3307 N   0  0  0  0  0  0  0  0  0  0  0  0
   -3.7410    6.9305   20.1443 C   0  0  0  0  0  0  0  0  0  0  0  0
   -1.6180    3.6897   22.7458 N   0  0  0  0  0  0  0  0  0  0  0  0
   -0.3672    4.0820   23.3933 C   0  0  0  0  0  0  0  0  0  0  0  0
   -0.0579    3.1114   24.5219 C   0  0  0  0  0  0  0  0  0  0  0  0
    0.0668    1.7126   23.9247 C   0  0  0  0  0  0  0  0  0  0  0  0
   -1.2249    1.3145   23.2116 C   0  0  0  0  0  0  0  0  0  0  0  0
   -1.6018    2.3507   22.1616 C   0  0  0  0  0  0  0  0  0  0  0  0
   -4.4805    1.8814   25.2684 H   0  0  0  0  0  0  0  0  0  0  0  0
   -2.7397    1.9335   27.0343 H   0  0  0  0  0  0  0  0  0  0  0  0
   -1.6498    5.1517   28.7427 H   0  0  0  0  0  0  0  0  0  0  0  0
   -0.8380    3.7944   27.9548 H   0  0  0  0  0  0  0  0  0  0  0  0
   -2.0459    3.5009   29.2423 H   0  0  0  0  0  0  0  0  0  0  0  0
   -3.2853    6.1856   27.4606 H   0  0  0  0  0  0  0  0  0  0  0  0
   -5.0086    6.1461   25.7081 H   0  0  0  0  0  0  0  0  0  0  0  0
   -4.1558    3.0401   22.1917 H   0  0  0  0  0  0  0  0  0  0  0  0
   -5.5028    5.6453   22.3310 H   0  0  0  0  0  0  0  0  0  0  0  0
   -4.8971    4.5356   20.1584 H   0  0  0  0  0  0  0  0  0  0  0  0
   -3.4279    3.5969   20.0527 H   0  0  0  0  0  0  0  0  0  0  0  0
   -1.2223    4.6687   19.8968 H   0  0  0  0  0  0  0  0  0  0  0  0
    0.0092    6.6993   19.2544 H   0  0  0  0  0  0  0  0  0  0  0  0
   -1.0924    8.8426   19.1564 H   0  0  0  0  0  0  0  0  0  0  0  0
   -5.5318   10.3716   19.9774 H   0  0  0  0  0  0  0  0  0  0  0  0
   -2.1250   10.4428   19.0793 H   0  0  0  0  0  0  0  0  0  0  0  0
   -3.5398   11.3863   19.2749 H   0  0  0  0  0  0  0  0  0  0  0  0
   -4.7906    6.9519   20.4092 H   0  0  0  0  0  0  0  0  0  0  0  0
   -0.4015    5.1084   23.7648 H   0  0  0  0  0  0  0  0  0  0  0  0
    0.4183    4.0270   22.6297 H   0  0  0  0  0  0  0  0  0  0  0  0
   -0.8653    3.1292   25.2606 H   0  0  0  0  0  0  0  0  0  0  0  0
    0.8675    3.3936   25.0332 H   0  0  0  0  0  0  0  0  0  0  0  0
    0.3064    0.9874   24.7052 H   0  0  0  0  0  0  0  0  0  0  0  0
    0.8881    1.7156   23.1967 H   0  0  0  0  0  0  0  0  0  0  0  0
   -2.0348    1.2343   23.9471 H   0  0  0  0  0  0  0  0  0  0  0  0
   -1.1044    0.3365   22.7360 H   0  0  0  0  0  0  0  0  0  0  0  0
   -0.8665    2.3672   21.3501 H   0  0  0  0  0  0  0  0  0  0  0  0
   -2.5560    2.0794   21.7141 H   0  0  0  0  0  0  0  0  0  0  0  0
   -5.5719    8.6863   20.3018 H   0  0  0  0  0  0  0  0  0  0  0  0
  1  2  1  0  0  0  0
  1  9  2  0  0  0  0
  1 10  2  0  0  0  0
  1 14  1  0  0  0  0
  2  3  2  0  0  0  0
  2  8  1  0  0  0  0
  3  4  1  0  0  0  0
  3 31  1  0  0  0  0
  4  5  2  0  0  0  0
  4 32  1  0  0  0  0
  5  6  1  0  0  0  0
  5  7  1  0  0  0  0
  6 33  1  0  0  0  0
  6 34  1  0  0  0  0
  6 35  1  0  0  0  0
  7  8  2  0  0  0  0
  7 36  1  0  0  0  0
  8 37  1  0  0  0  0
 11 12  2  0  0  0  0
 11 13  1  0  0  0  0
 11 25  1  0  0  0  0
 13 14  1  0  0  0  0
 13 15  1  0  0  0  0
 13 38  1  1  0  0  0
 14 39  1  0  0  0  0
 15 16  1  0  0  0  0
 15 40  1  0  0  0  0
 15 41  1  0  0  0  0
 16 17  2  0  0  0  0
 16 24  1  0  0  0  0
 17 18  1  0  0  0  0
 17 42  1  0  0  0  0
 18 19  2  0  0  0  0
 18 43  1  0  0  0  0
 19 20  1  0  0  0  0
 19 44  1  0  0  0  0
 20 21  1  0  0  0  0
 20 24  2  0  0  0  0
 21 22  2  0  0  0  0
 21 23  1  0  0  0  0
 22 45  1  0  0  0  0
 22 59  1  0  0  0  0
 23 46  1  0  0  0  0
 23 47  1  0  0  0  0
 24 48  1  0  0  0  0
 25 26  1  0  0  0  0
 25 30  1  0  0  0  0
 26 27  1  0  0  0  0
 26 49  1  0  0  0  0
 26 50  1  0  0  0  0
 27 28  1  0  0  0  0
 27 51  1  0  0  0  0
 27 52  1  0  0  0  0
 28 29  1  0  0  0  0
 28 53  1  0  0  0  0
 28 54  1  0  0  0  0
 29 30  1  0  0  0  0
 29 55  1  0  0  0  0
 29 56  1  0  0  0  0
 30 57  1  0  0  0  0
 30 58  1  0  0  0  0
M  END
$$$$
