0ZQ
 OpenBabel04041915363D

 99101  0  0  1  0  0  0  0  0999 V2000
  -22.0578   39.8048   30.2780 O   0  0  0  0  0  0  0  0  0  0  0  0
  -21.1935   39.1825   30.9010 C   0  0  0  0  0  0  0  0  0  0  0  0
  -21.2533   38.7887   32.2020 O   0  0  0  0  0  0  0  0  0  0  0  0
  -22.4433   38.8781   33.0534 C   0  0  0  0  0  0  0  0  0  0  0  0
  -22.0323   38.3770   34.4493 C   0  0  0  0  0  0  0  0  0  0  0  0
  -23.5416   37.9591   32.5236 C   0  0  0  0  0  0  0  0  0  0  0  0
  -22.9553   40.3069   33.1740 C   0  0  0  0  0  0  0  0  0  0  0  0
  -20.0606   38.6880   30.3214 N   0  0  0  0  0  0  0  0  0  0  0  0
  -19.6848   38.8813   28.9140 C   0  0  2  0  0  0  0  0  0  0  0  0
  -19.8865   37.5758   28.1392 C   0  0  0  0  0  0  0  0  0  0  0  0
  -18.2140   39.3182   28.7915 C   0  0  0  0  0  0  0  0  0  0  0  0
  -17.9176   40.6670   29.3895 C   0  0  0  0  0  0  0  0  0  0  0  0
  -16.6385   40.9507   29.8744 C   0  0  0  0  0  0  0  0  0  0  0  0
  -18.8927   41.6703   29.4380 C   0  0  0  0  0  0  0  0  0  0  0  0
  -16.3474   42.2068   30.4096 C   0  0  0  0  0  0  0  0  0  0  0  0
  -18.6072   42.9223   29.9742 C   0  0  0  0  0  0  0  0  0  0  0  0
  -17.3306   43.1927   30.4595 C   0  0  0  0  0  0  0  0  0  0  0  0
  -21.1616   37.5887   27.3215 C   0  0  0  0  0  0  0  0  0  0  0  0
  -21.8458   36.2617   27.4395 N   0  3  0  0  0  0  0  0  0  0  0  0
  -23.2585   36.2163   26.8917 C   0  0  2  0  0  0  0  0  0  0  0  0
  -23.5653   37.2912   25.8494 C   0  0  0  0  0  0  0  0  0  0  0  0
  -23.8197   38.4320   26.1760 O   0  0  0  0  0  0  0  0  0  0  0  0
  -24.2557   36.3545   28.0360 C   0  0  0  0  0  0  0  0  0  0  0  0
  -25.6769   36.4158   27.5434 C   0  0  0  0  0  0  0  0  0  0  0  0
  -26.4772   37.5174   27.8520 C   0  0  0  0  0  0  0  0  0  0  0  0
  -26.1971   35.4017   26.7358 C   0  0  0  0  0  0  0  0  0  0  0  0
  -27.7832   37.6082   27.3695 C   0  0  0  0  0  0  0  0  0  0  0  0
  -27.5003   35.4924   26.2487 C   0  0  0  0  0  0  0  0  0  0  0  0
  -28.2968   36.5926   26.5695 C   0  0  0  0  0  0  0  0  0  0  0  0
  -23.4493   36.8674   24.5732 N   0  0  0  0  0  0  0  0  0  0  0  0
  -23.7603   37.7601   23.4461 C   0  0  2  0  0  0  0  0  0  0  0  0
  -24.5979   36.9474   22.4485 C   0  0  0  0  0  0  0  0  0  0  0  0
  -24.3334   35.7942   22.1790 O   0  0  0  0  0  0  0  0  0  0  0  0
  -22.4667   38.2504   22.8103 C   0  0  0  0  0  0  0  0  0  0  0  0
  -22.6594   39.0593   21.5287 C   0  0  0  0  0  0  0  0  0  0  0  0
  -22.9066   38.1858   20.2768 C   0  0  0  0  0  0  0  0  0  0  0  0
  -23.2668   38.8021   19.2422 O   0  0  0  0  0  0  0  0  0  0  0  0
  -22.7172   36.9481   20.4287 O   0  0  0  0  0  0  0  0  0  0  0  0
  -25.6887   37.6116   21.9699 N   0  0  0  0  0  0  0  0  0  0  0  0
  -26.5245   36.9573   20.9812 C   0  0  2  0  0  0  0  0  0  0  0  0
  -26.7843   37.9243   19.8114 C   0  0  0  0  0  0  0  0  0  0  0  0
  -26.9298   39.1105   19.9478 O   0  0  0  0  0  0  0  0  0  0  0  0
  -27.8153   36.4606   21.6237 C   0  0  0  0  0  0  0  0  0  0  0  0
  -28.7386   37.5502   22.1183 C   0  0  0  0  0  0  0  0  0  0  0  0
  -29.7801   38.0118   21.3083 C   0  0  0  0  0  0  0  0  0  0  0  0
  -28.5549   38.1305   23.3754 C   0  0  0  0  0  0  0  0  0  0  0  0
  -30.6261   39.0285   21.7520 C   0  0  0  0  0  0  0  0  0  0  0  0
  -29.4011   39.1465   23.8204 C   0  0  0  0  0  0  0  0  0  0  0  0
  -30.4391   39.5953   23.0095 C   0  0  0  0  0  0  0  0  0  0  0  0
  -26.9651   37.3007   18.6087 N   0  0  0  0  0  0  0  0  0  0  0  0
  -22.8769   38.3876   35.1574 H   0  0  0  0  0  0  0  0  0  0  0  0
  -21.2327   39.0070   34.8573 H   0  0  0  0  0  0  0  0  0  0  0  0
  -21.6491   37.3496   34.3892 H   0  0  0  0  0  0  0  0  0  0  0  0
  -24.4400   37.9876   33.1566 H   0  0  0  0  0  0  0  0  0  0  0  0
  -23.1848   36.9232   32.4774 H   0  0  0  0  0  0  0  0  0  0  0  0
  -23.8212   38.2659   31.5136 H   0  0  0  0  0  0  0  0  0  0  0  0
  -23.8471   40.3681   33.8132 H   0  0  0  0  0  0  0  0  0  0  0  0
  -23.2185   40.6864   32.1872 H   0  0  0  0  0  0  0  0  0  0  0  0
  -22.1784   40.9515   33.5936 H   0  0  0  0  0  0  0  0  0  0  0  0
  -19.4194   38.1936   30.9284 H   0  0  0  0  0  0  0  0  0  0  0  0
  -20.3300   39.6537   28.4814 H   0  0  0  0  0  0  0  0  0  0  0  0
  -19.8914   36.7367   28.8465 H   0  0  0  0  0  0  0  0  0  0  0  0
  -19.0521   37.4360   27.4434 H   0  0  0  0  0  0  0  0  0  0  0  0
  -17.9433   39.3510   27.7267 H   0  0  0  0  0  0  0  0  0  0  0  0
  -17.5837   38.5634   29.2839 H   0  0  0  0  0  0  0  0  0  0  0  0
  -15.8620   40.1905   29.8421 H   0  0  0  0  0  0  0  0  0  0  0  0
  -19.8929   41.4856   29.0682 H   0  0  0  0  0  0  0  0  0  0  0  0
  -15.3507   42.4187   30.7870 H   0  0  0  0  0  0  0  0  0  0  0  0
  -19.3797   43.6850   30.0084 H   0  0  0  0  0  0  0  0  0  0  0  0
  -17.1036   44.1703   30.8737 H   0  0  0  0  0  0  0  0  0  0  0  0
  -20.9371   37.7283   26.2607 H   0  0  0  0  0  0  0  0  0  0  0  0
  -21.8602   38.3417   27.6842 H   0  0  0  0  0  0  0  0  0  0  0  0
  -21.2919   35.5535   26.9442 H   0  0  0  0  0  0  0  0  0  0  0  0
  -23.3434   35.2224   26.4370 H   0  0  0  0  0  0  0  0  0  0  0  0
  -24.0264   37.2648   28.6078 H   0  0  0  0  0  0  0  0  0  0  0  0
  -24.1549   35.4941   28.7067 H   0  0  0  0  0  0  0  0  0  0  0  0
  -26.0830   38.3240   28.4663 H   0  0  0  0  0  0  0  0  0  0  0  0
  -25.5917   34.5394   26.4786 H   0  0  0  0  0  0  0  0  0  0  0  0
  -28.3974   38.4698   27.6199 H   0  0  0  0  0  0  0  0  0  0  0  0
  -27.8977   34.7006   25.6208 H   0  0  0  0  0  0  0  0  0  0  0  0
  -29.3135   36.6637   26.1899 H   0  0  0  0  0  0  0  0  0  0  0  0
  -23.2138   35.9069   24.3406 H   0  0  0  0  0  0  0  0  0  0  0  0
  -24.3450   38.6114   23.8209 H   0  0  0  0  0  0  0  0  0  0  0  0
  -21.8336   37.3802   22.5943 H   0  0  0  0  0  0  0  0  0  0  0  0
  -21.9391   38.8672   23.5485 H   0  0  0  0  0  0  0  0  0  0  0  0
  -21.7477   39.6477   21.3549 H   0  0  0  0  0  0  0  0  0  0  0  0
  -23.4956   39.7588   21.6650 H   0  0  0  0  0  0  0  0  0  0  0  0
  -25.9085   38.5573   22.2543 H   0  0  0  0  0  0  0  0  0  0  0  0
  -25.9837   36.0930   20.5790 H   0  0  0  0  0  0  0  0  0  0  0  0
  -27.5576   35.8222   22.4820 H   0  0  0  0  0  0  0  0  0  0  0  0
  -28.3627   35.8409   20.9046 H   0  0  0  0  0  0  0  0  0  0  0  0
  -29.9297   37.5836   20.3214 H   0  0  0  0  0  0  0  0  0  0  0  0
  -27.7463   37.7869   24.0126 H   0  0  0  0  0  0  0  0  0  0  0  0
  -31.4309   39.3785   21.1127 H   0  0  0  0  0  0  0  0  0  0  0  0
  -29.2500   39.5892   24.7989 H   0  0  0  0  0  0  0  0  0  0  0  0
  -31.0990   40.3857   23.3542 H   0  0  0  0  0  0  0  0  0  0  0  0
  -27.1105   37.8808   17.7901 H   0  0  0  0  0  0  0  0  0  0  0  0
  -26.8036   36.3095   18.5010 H   0  0  0  0  0  0  0  0  0  0  0  0
  -21.8890   35.9991   28.4282 H   0  0  0  0  0  0  0  0  0  0  0  0
  1  2  2  0  0  0  0
  2  3  1  0  0  0  0
  2  8  1  0  0  0  0
  3  4  1  0  0  0  0
  4  5  1  0  0  0  0
  4  6  1  0  0  0  0
  4  7  1  0  0  0  0
  5 51  1  0  0  0  0
  5 52  1  0  0  0  0
  5 53  1  0  0  0  0
  6 54  1  0  0  0  0
  6 55  1  0  0  0  0
  6 56  1  0  0  0  0
  7 57  1  0  0  0  0
  7 58  1  0  0  0  0
  7 59  1  0  0  0  0
  8  9  1  0  0  0  0
  8 60  1  0  0  0  0
  9 10  1  0  0  0  0
  9 11  1  0  0  0  0
  9 61  1  6  0  0  0
 10 18  1  0  0  0  0
 10 62  1  0  0  0  0
 10 63  1  0  0  0  0
 11 12  1  0  0  0  0
 11 64  1  0  0  0  0
 11 65  1  0  0  0  0
 12 13  2  0  0  0  0
 12 14  1  0  0  0  0
 13 15  1  0  0  0  0
 13 66  1  0  0  0  0
 14 16  2  0  0  0  0
 14 67  1  0  0  0  0
 15 17  2  0  0  0  0
 15 68  1  0  0  0  0
 16 17  1  0  0  0  0
 16 69  1  0  0  0  0
 17 70  1  0  0  0  0
 18 19  1  0  0  0  0
 18 71  1  0  0  0  0
 18 72  1  0  0  0  0
 19 20  1  0  0  0  0
 19 73  1  0  0  0  0
 19 99  1  0  0  0  0
 20 21  1  0  0  0  0
 20 23  1  0  0  0  0
 20 74  1  6  0  0  0
 21 22  2  0  0  0  0
 21 30  1  0  0  0  0
 23 24  1  0  0  0  0
 23 75  1  0  0  0  0
 23 76  1  0  0  0  0
 24 25  2  0  0  0  0
 24 26  1  0  0  0  0
 25 27  1  0  0  0  0
 25 77  1  0  0  0  0
 26 28  2  0  0  0  0
 26 78  1  0  0  0  0
 27 29  2  0  0  0  0
 27 79  1  0  0  0  0
 28 29  1  0  0  0  0
 28 80  1  0  0  0  0
 29 81  1  0  0  0  0
 30 31  1  0  0  0  0
 30 82  1  0  0  0  0
 31 32  1  0  0  0  0
 31 34  1  0  0  0  0
 31 83  1  1  0  0  0
 32 33  2  0  0  0  0
 32 39  1  0  0  0  0
 34 35  1  0  0  0  0
 34 84  1  0  0  0  0
 34 85  1  0  0  0  0
 35 36  1  0  0  0  0
 35 86  1  0  0  0  0
 35 87  1  0  0  0  0
 36 37  2  0  0  0  0
 36 38  1  0  0  0  0
 39 40  1  0  0  0  0
 39 88  1  0  0  0  0
 40 41  1  0  0  0  0
 40 43  1  0  0  0  0
 40 89  1  6  0  0  0
 41 42  2  0  0  0  0
 41 50  1  0  0  0  0
 43 44  1  0  0  0  0
 43 90  1  0  0  0  0
 43 91  1  0  0  0  0
 44 45  2  0  0  0  0
 44 46  1  0  0  0  0
 45 47  1  0  0  0  0
 45 92  1  0  0  0  0
 46 48  2  0  0  0  0
 46 93  1  0  0  0  0
 47 49  2  0  0  0  0
 47 94  1  0  0  0  0
 48 49  1  0  0  0  0
 48 95  1  0  0  0  0
 49 96  1  0  0  0  0
 50 97  1  0  0  0  0
 50 98  1  0  0  0  0
M  CHG  1  19   1
M  END
$$$$
