0ZQ
 OpenBabel04041915363D

 99101  0  0  1  0  0  0  0  0999 V2000
   -8.4233   15.5233   -2.5917 O   0  0  0  0  0  0  0  0  0  0  0  0
   -8.2195   16.5396   -3.2910 C   0  0  0  0  0  0  0  0  0  0  0  0
   -8.3958   16.6469   -4.6184 O   0  0  0  0  0  0  0  0  0  0  0  0
   -8.9866   15.6047   -5.4571 C   0  0  0  0  0  0  0  0  0  0  0  0
   -8.9159   16.1322   -6.8988 C   0  0  0  0  0  0  0  0  0  0  0  0
  -10.4584   15.3902   -5.0867 C   0  0  0  0  0  0  0  0  0  0  0  0
   -8.2038   14.2980   -5.3684 C   0  0  0  0  0  0  0  0  0  0  0  0
   -7.9244   17.7423   -2.7454 N   0  0  0  0  0  0  0  0  0  0  0  0
   -7.6289   17.9176   -1.3258 C   0  0  2  0  0  0  0  0  0  0  0  0
   -8.8060   18.6300   -0.6407 C   0  0  0  0  0  0  0  0  0  0  0  0
   -6.3202   18.6969   -1.1299 C   0  0  0  0  0  0  0  0  0  0  0  0
   -5.1411   18.0236   -1.7787 C   0  0  0  0  0  0  0  0  0  0  0  0
   -4.6905   18.4433   -3.0351 C   0  0  0  0  0  0  0  0  0  0  0  0
   -4.5217   16.9330   -1.1626 C   0  0  0  0  0  0  0  0  0  0  0  0
   -3.6519   17.7713   -3.6752 C   0  0  0  0  0  0  0  0  0  0  0  0
   -3.4818   16.2600   -1.8019 C   0  0  0  0  0  0  0  0  0  0  0  0
   -3.0489   16.6776   -3.0592 C   0  0  0  0  0  0  0  0  0  0  0  0
   -9.5425   17.7384    0.3462 C   0  0  0  0  0  0  0  0  0  0  0  0
  -10.6629   17.0338   -0.3328 N   0  3  0  0  0  0  0  0  0  0  0  0
  -11.2786   15.8893    0.4375 C   0  0  2  0  0  0  0  0  0  0  0  0
  -10.4041   15.2662    1.5341 C   0  0  0  0  0  0  0  0  0  0  0  0
   -9.3614   14.7067    1.2851 O   0  0  0  0  0  0  0  0  0  0  0  0
  -11.6589   14.7910   -0.5485 C   0  0  0  0  0  0  0  0  0  0  0  0
  -12.3874   13.6629    0.1204 C   0  0  0  0  0  0  0  0  0  0  0  0
  -12.1084   12.3470   -0.2372 C   0  0  0  0  0  0  0  0  0  0  0  0
  -13.3402   13.9116    1.1112 C   0  0  0  0  0  0  0  0  0  0  0  0
  -12.7553   11.2913    0.3947 C   0  0  0  0  0  0  0  0  0  0  0  0
  -13.9880   12.8604    1.7478 C   0  0  0  0  0  0  0  0  0  0  0  0
  -13.7036   11.5502    1.3814 C   0  0  0  0  0  0  0  0  0  0  0  0
  -10.8993   15.4362    2.7864 N   0  0  0  0  0  0  0  0  0  0  0  0
  -10.2362   14.8749    3.9787 C   0  0  2  0  0  0  0  0  0  0  0  0
  -11.3563   14.6322    4.9975 C   0  0  0  0  0  0  0  0  0  0  0  0
  -12.2529   15.4624    5.1558 O   0  0  0  0  0  0  0  0  0  0  0  0
   -9.2195   15.8683    4.5311 C   0  0  0  0  0  0  0  0  0  0  0  0
   -8.5084   15.3802    5.7933 C   0  0  0  0  0  0  0  0  0  0  0  0
   -9.3799   15.4357    7.0696 C   0  0  0  0  0  0  0  0  0  0  0  0
   -8.9380   14.8058    8.0637 O   0  0  0  0  0  0  0  0  0  0  0  0
  -10.4412   16.1097    6.9823 O   0  0  0  0  0  0  0  0  0  0  0  0
  -11.3140   13.4275    5.6223 N   0  0  0  0  0  0  0  0  0  0  0  0
  -12.3126   13.1123    6.6234 C   0  0  2  0  0  0  0  0  0  0  0  0
  -11.7009   12.4413    7.8698 C   0  0  0  0  0  0  0  0  0  0  0  0
  -10.6243   11.8959    7.8812 O   0  0  0  0  0  0  0  0  0  0  0  0
  -13.4128   12.2460    6.0162 C   0  0  0  0  0  0  0  0  0  0  0  0
  -12.9321   10.9346    5.4377 C   0  0  0  0  0  0  0  0  0  0  0  0
  -13.0627    9.7526    6.1614 C   0  0  0  0  0  0  0  0  0  0  0  0
  -12.3371   10.8844    4.1755 C   0  0  0  0  0  0  0  0  0  0  0  0
  -12.6231    8.5420    5.6240 C   0  0  0  0  0  0  0  0  0  0  0  0
  -11.8993    9.6770    3.6326 C   0  0  0  0  0  0  0  0  0  0  0  0
  -12.0447    8.5030    4.3580 C   0  0  0  0  0  0  0  0  0  0  0  0
  -12.5412   12.3993    8.9519 N   0  0  0  0  0  0  0  0  0  0  0  0
   -9.3588   15.4249   -7.6152 H   0  0  0  0  0  0  0  0  0  0  0  0
   -7.8714   16.3094   -7.1867 H   0  0  0  0  0  0  0  0  0  0  0  0
   -9.4490   17.0895   -6.9830 H   0  0  0  0  0  0  0  0  0  0  0  0
  -10.9338   14.6293   -5.7224 H   0  0  0  0  0  0  0  0  0  0  0  0
  -11.0262   16.3244   -5.1910 H   0  0  0  0  0  0  0  0  0  0  0  0
  -10.5409   15.0651   -4.0458 H   0  0  0  0  0  0  0  0  0  0  0  0
   -8.6447   13.5163   -6.0017 H   0  0  0  0  0  0  0  0  0  0  0  0
   -8.1967   13.9355   -4.3397 H   0  0  0  0  0  0  0  0  0  0  0  0
   -7.1655   14.4540   -5.6792 H   0  0  0  0  0  0  0  0  0  0  0  0
   -7.8301   18.5302   -3.3769 H   0  0  0  0  0  0  0  0  0  0  0  0
   -7.5065   16.9238   -0.8777 H   0  0  0  0  0  0  0  0  0  0  0  0
   -9.5068   19.0061   -1.3996 H   0  0  0  0  0  0  0  0  0  0  0  0
   -8.4247   19.4823   -0.0707 H   0  0  0  0  0  0  0  0  0  0  0  0
   -6.1215   18.7961   -0.0551 H   0  0  0  0  0  0  0  0  0  0  0  0
   -6.4308   19.7044   -1.5519 H   0  0  0  0  0  0  0  0  0  0  0  0
   -5.1580   19.2930   -3.5238 H   0  0  0  0  0  0  0  0  0  0  0  0
   -4.8540   16.5994   -0.1831 H   0  0  0  0  0  0  0  0  0  0  0  0
   -3.3141   18.0997   -4.6534 H   0  0  0  0  0  0  0  0  0  0  0  0
   -3.0115   15.4082   -1.3197 H   0  0  0  0  0  0  0  0  0  0  0  0
   -2.2387   16.1512   -3.5561 H   0  0  0  0  0  0  0  0  0  0  0  0
   -9.9905   18.3304    1.1451 H   0  0  0  0  0  0  0  0  0  0  0  0
   -8.8730   16.9855    0.7549 H   0  0  0  0  0  0  0  0  0  0  0  0
  -11.4107   17.7068   -0.5338 H   0  0  0  0  0  0  0  0  0  0  0  0
  -12.1762   16.3273    0.8853 H   0  0  0  0  0  0  0  0  0  0  0  0
  -10.7457   14.3993   -1.0188 H   0  0  0  0  0  0  0  0  0  0  0  0
  -12.3048   15.2081   -1.3299 H   0  0  0  0  0  0  0  0  0  0  0  0
  -11.3716   12.1354   -1.0095 H   0  0  0  0  0  0  0  0  0  0  0  0
  -13.5806   14.9238    1.4074 H   0  0  0  0  0  0  0  0  0  0  0  0
  -12.5255   10.2670    0.1163 H   0  0  0  0  0  0  0  0  0  0  0  0
  -14.7131   13.0619    2.5301 H   0  0  0  0  0  0  0  0  0  0  0  0
  -14.1995   10.7259    1.8884 H   0  0  0  0  0  0  0  0  0  0  0  0
  -11.7728   15.9272    2.9512 H   0  0  0  0  0  0  0  0  0  0  0  0
   -9.7420   13.9340    3.7027 H   0  0  0  0  0  0  0  0  0  0  0  0
   -9.7327   16.8132    4.7532 H   0  0  0  0  0  0  0  0  0  0  0  0
   -8.4717   16.0696    3.7527 H   0  0  0  0  0  0  0  0  0  0  0  0
   -7.6299   16.0207    5.9573 H   0  0  0  0  0  0  0  0  0  0  0  0
   -8.1541   14.3534    5.6264 H   0  0  0  0  0  0  0  0  0  0  0  0
  -10.5768   12.7551    5.4354 H   0  0  0  0  0  0  0  0  0  0  0  0
  -12.7655   14.0471    6.9745 H   0  0  0  0  0  0  0  0  0  0  0  0
  -13.8970   12.8122    5.2099 H   0  0  0  0  0  0  0  0  0  0  0  0
  -14.1743   12.0311    6.7749 H   0  0  0  0  0  0  0  0  0  0  0  0
  -13.5070    9.7708    7.1532 H   0  0  0  0  0  0  0  0  0  0  0  0
  -12.2196   11.7991    3.6053 H   0  0  0  0  0  0  0  0  0  0  0  0
  -12.7311    7.6270    6.1991 H   0  0  0  0  0  0  0  0  0  0  0  0
  -11.4485    9.6547    2.6459 H   0  0  0  0  0  0  0  0  0  0  0  0
  -11.7034    7.5605    3.9413 H   0  0  0  0  0  0  0  0  0  0  0  0
  -12.1945   11.9848    9.8098 H   0  0  0  0  0  0  0  0  0  0  0  0
  -13.4408   12.8556    8.9353 H   0  0  0  0  0  0  0  0  0  0  0  0
  -10.3155   16.6566   -1.2237 H   0  0  0  0  0  0  0  0  0  0  0  0
  1  2  2  0  0  0  0
  2  3  1  0  0  0  0
  2  8  1  0  0  0  0
  3  4  1  0  0  0  0
  4  5  1  0  0  0  0
  4  6  1  0  0  0  0
  4  7  1  0  0  0  0
  5 51  1  0  0  0  0
  5 52  1  0  0  0  0
  5 53  1  0  0  0  0
  6 54  1  0  0  0  0
  6 55  1  0  0  0  0
  6 56  1  0  0  0  0
  7 57  1  0  0  0  0
  7 58  1  0  0  0  0
  7 59  1  0  0  0  0
  8  9  1  0  0  0  0
  8 60  1  0  0  0  0
  9 10  1  0  0  0  0
  9 11  1  0  0  0  0
  9 61  1  1  0  0  0
 10 18  1  0  0  0  0
 10 62  1  0  0  0  0
 10 63  1  0  0  0  0
 11 12  1  0  0  0  0
 11 64  1  0  0  0  0
 11 65  1  0  0  0  0
 12 13  2  0  0  0  0
 12 14  1  0  0  0  0
 13 15  1  0  0  0  0
 13 66  1  0  0  0  0
 14 16  2  0  0  0  0
 14 67  1  0  0  0  0
 15 17  2  0  0  0  0
 15 68  1  0  0  0  0
 16 17  1  0  0  0  0
 16 69  1  0  0  0  0
 17 70  1  0  0  0  0
 18 19  1  0  0  0  0
 18 71  1  0  0  0  0
 18 72  1  0  0  0  0
 19 20  1  0  0  0  0
 19 73  1  0  0  0  0
 19 99  1  0  0  0  0
 20 21  1  0  0  0  0
 20 23  1  0  0  0  0
 20 74  1  1  0  0  0
 21 22  2  0  0  0  0
 21 30  1  0  0  0  0
 23 24  1  0  0  0  0
 23 75  1  0  0  0  0
 23 76  1  0  0  0  0
 24 25  2  0  0  0  0
 24 26  1  0  0  0  0
 25 27  1  0  0  0  0
 25 77  1  0  0  0  0
 26 28  2  0  0  0  0
 26 78  1  0  0  0  0
 27 29  2  0  0  0  0
 27 79  1  0  0  0  0
 28 29  1  0  0  0  0
 28 80  1  0  0  0  0
 29 81  1  0  0  0  0
 30 31  1  0  0  0  0
 30 82  1  0  0  0  0
 31 32  1  0  0  0  0
 31 34  1  0  0  0  0
 31 83  1  6  0  0  0
 32 33  2  0  0  0  0
 32 39  1  0  0  0  0
 34 35  1  0  0  0  0
 34 84  1  0  0  0  0
 34 85  1  0  0  0  0
 35 36  1  0  0  0  0
 35 86  1  0  0  0  0
 35 87  1  0  0  0  0
 36 37  2  0  0  0  0
 36 38  1  0  0  0  0
 39 40  1  0  0  0  0
 39 88  1  0  0  0  0
 40 41  1  0  0  0  0
 40 43  1  0  0  0  0
 40 89  1  1  0  0  0
 41 42  2  0  0  0  0
 41 50  1  0  0  0  0
 43 44  1  0  0  0  0
 43 90  1  0  0  0  0
 43 91  1  0  0  0  0
 44 45  2  0  0  0  0
 44 46  1  0  0  0  0
 45 47  1  0  0  0  0
 45 92  1  0  0  0  0
 46 48  2  0  0  0  0
 46 93  1  0  0  0  0
 47 49  2  0  0  0  0
 47 94  1  0  0  0  0
 48 49  1  0  0  0  0
 48 95  1  0  0  0  0
 49 96  1  0  0  0  0
 50 97  1  0  0  0  0
 50 98  1  0  0  0  0
M  CHG  1  19   1
M  END
$$$$
