108
 OpenBabel04041914443D

 30 30  0  0  1  0  0  0  0  0999 V2000
   44.0044   -2.7106   26.3248 C   0  0  0  0  0  0  0  0  0  0  0  0
   43.3420   -3.2281   27.4482 C   0  0  0  0  0  0  0  0  0  0  0  0
   43.2028   -2.4732   28.6235 C   0  0  0  0  0  0  0  0  0  0  0  0
   43.7154   -1.1756   28.6656 C   0  0  0  0  0  0  0  0  0  0  0  0
   44.3489   -0.6342   27.5560 C   0  0  0  0  0  0  0  0  0  0  0  0
   44.4950   -1.3930   26.4010 C   0  0  0  0  0  0  0  0  0  0  0  0
   42.5110   -3.1310   29.7540 C   0  0  0  0  0  0  0  0  0  0  0  0
   44.2142   -3.5070   25.1060 C   0  0  0  0  0  0  0  0  0  0  0  0
   43.6286   -0.4085   29.7812 O   0  0  0  0  0  0  0  0  0  0  0  0
   44.6008   -2.9439   23.9796 N   0  0  0  0  0  0  0  0  0  0  0  0
   44.0297   -4.8123   25.1175 N   0  0  0  0  0  0  0  0  0  0  0  0
   42.3737   -2.5607   30.8893 N   0  0  0  0  0  0  0  0  0  0  0  0
   41.6204   -3.3147   31.9135 C   0  0  1  0  0  0  0  0  0  0  0  0
   42.5721   -4.2848   32.5995 C   0  0  0  0  0  0  0  0  0  0  0  0
   40.9833   -2.3755   32.9971 C   0  0  0  0  0  0  0  0  0  0  0  0
   40.2295   -2.9856   33.8196 O   0  0  0  0  0  0  0  0  0  0  0  0
   41.2378   -1.1393   32.9357 O   0  0  0  0  0  0  0  0  0  0  0  0
   42.9149   -4.2301   27.4461 H   0  0  0  0  0  0  0  0  0  0  0  0
   44.7470    0.3759   27.5911 H   0  0  0  0  0  0  0  0  0  0  0  0
   45.0230   -0.9151   25.5837 H   0  0  0  0  0  0  0  0  0  0  0  0
   42.1251   -4.1526   29.5855 H   0  0  0  0  0  0  0  0  0  0  0  0
   43.9988    0.4756   29.6569 H   0  0  0  0  0  0  0  0  0  0  0  0
   44.7713   -3.4703   23.1382 H   0  0  0  0  0  0  0  0  0  0  0  0
   44.7269   -1.9425   23.9170 H   0  0  0  0  0  0  0  0  0  0  0  0
   44.1687   -5.3913   24.3062 H   0  0  0  0  0  0  0  0  0  0  0  0
   40.7939   -3.8705   31.4494 H   0  0  0  0  0  0  0  0  0  0  0  0
   42.0633   -4.8745   33.3677 H   0  0  0  0  0  0  0  0  0  0  0  0
   43.4032   -3.7506   33.0725 H   0  0  0  0  0  0  0  0  0  0  0  0
   43.0013   -4.9839   31.8728 H   0  0  0  0  0  0  0  0  0  0  0  0
   43.7613   -5.2997   25.9685 H   0  0  0  0  0  0  0  0  0  0  0  0
  1  8  1  0  0  0  0
  1  6  2  0  0  0  0
  1  2  1  0  0  0  0
  2  3  2  0  0  0  0
  2 18  1  0  0  0  0
  3  7  1  0  0  0  0
  3  4  1  0  0  0  0
  4  9  1  0  0  0  0
  4  5  2  0  0  0  0
  5  6  1  0  0  0  0
  5 19  1  0  0  0  0
  6 20  1  0  0  0  0
  7 12  2  0  0  0  0
  7 21  1  0  0  0  0
  8 11  2  0  0  0  0
  8 10  1  0  0  0  0
  9 22  1  0  0  0  0
 10 23  1  0  0  0  0
 10 24  1  0  0  0  0
 11 25  1  0  0  0  0
 11 30  1  0  0  0  0
 12 13  1  0  0  0  0
 13 15  1  0  0  0  0
 13 14  1  0  0  0  0
 13 26  1  6  0  0  0
 14 27  1  0  0  0  0
 14 28  1  0  0  0  0
 14 29  1  0  0  0  0
 15 17  2  0  0  0  0
 15 16  1  0  0  0  0
M  END
$$$$
