109
 OpenBabel04041914443D

 30 30  0  0  1  0  0  0  0  0999 V2000
   43.8848   -3.0143   26.2742 C   0  0  0  0  0  0  0  0  0  0  0  0
   43.0328   -3.6391   27.2004 C   0  0  0  0  0  0  0  0  0  0  0  0
   42.6048   -2.9692   28.3468 C   0  0  0  0  0  0  0  0  0  0  0  0
   43.0143   -1.6586   28.5956 C   0  0  0  0  0  0  0  0  0  0  0  0
   43.8755   -1.0279   27.7017 C   0  0  0  0  0  0  0  0  0  0  0  0
   44.3148   -1.7030   26.5582 C   0  0  0  0  0  0  0  0  0  0  0  0
   42.5664   -0.9056   29.7753 C   0  0  0  0  0  0  0  0  0  0  0  0
   44.2874   -3.7033   25.0288 C   0  0  0  0  0  0  0  0  0  0  0  0
   41.7692   -3.6699   29.1695 O   0  0  0  0  0  0  0  0  0  0  0  0
   44.6743   -3.0010   23.9828 N   0  0  0  0  0  0  0  0  0  0  0  0
   44.2509   -5.0173   24.9461 N   0  0  0  0  0  0  0  0  0  0  0  0
   41.7382   -1.4313   30.6051 N   0  0  0  0  0  0  0  0  0  0  0  0
   41.4181   -0.5439   31.7623 C   0  0  1  0  0  0  0  0  0  0  0  0
   40.0683    0.1112   31.5156 C   0  0  0  0  0  0  0  0  0  0  0  0
   41.3551   -1.3776   33.0812 C   0  0  0  0  0  0  0  0  0  0  0  0
   42.2379   -1.0644   33.9353 O   0  0  0  0  0  0  0  0  0  0  0  0
   40.4511   -2.2594   33.1456 O   0  0  0  0  0  0  0  0  0  0  0  0
   42.6549   -4.6481   27.0572 H   0  0  0  0  0  0  0  0  0  0  0  0
   44.2090   -0.0084   27.8878 H   0  0  0  0  0  0  0  0  0  0  0  0
   45.0049   -1.1722   25.9069 H   0  0  0  0  0  0  0  0  0  0  0  0
   42.9638    0.1186   29.8975 H   0  0  0  0  0  0  0  0  0  0  0  0
   41.5453   -3.0887   29.9502 H   0  0  0  0  0  0  0  0  0  0  0  0
   44.9470   -3.4338   23.1125 H   0  0  0  0  0  0  0  0  0  0  0  0
   44.6726   -1.9889   24.0091 H   0  0  0  0  0  0  0  0  0  0  0  0
   44.4926   -5.5185   24.1036 H   0  0  0  0  0  0  0  0  0  0  0  0
   42.1768    0.2383   31.8936 H   0  0  0  0  0  0  0  0  0  0  0  0
   39.7887    0.7564   32.3550 H   0  0  0  0  0  0  0  0  0  0  0  0
   39.2751   -0.6323   31.3817 H   0  0  0  0  0  0  0  0  0  0  0  0
   40.0977    0.7257   30.6092 H   0  0  0  0  0  0  0  0  0  0  0  0
   43.9734   -5.5800   25.7441 H   0  0  0  0  0  0  0  0  0  0  0  0
  1  8  1  0  0  0  0
  1  6  2  0  0  0  0
  1  2  1  0  0  0  0
  2  3  2  0  0  0  0
  2 18  1  0  0  0  0
  3  9  1  0  0  0  0
  3  4  1  0  0  0  0
  4  7  1  0  0  0  0
  4  5  2  0  0  0  0
  5  6  1  0  0  0  0
  5 19  1  0  0  0  0
  6 20  1  0  0  0  0
  7 12  2  0  0  0  0
  7 21  1  0  0  0  0
  8 11  2  0  0  0  0
  8 10  1  0  0  0  0
  9 22  1  0  0  0  0
 10 23  1  0  0  0  0
 10 24  1  0  0  0  0
 11 25  1  0  0  0  0
 11 30  1  0  0  0  0
 12 13  1  0  0  0  0
 13 15  1  0  0  0  0
 13 14  1  0  0  0  0
 13 26  1  1  0  0  0
 14 27  1  0  0  0  0
 14 28  1  0  0  0  0
 14 29  1  0  0  0  0
 15 17  2  0  0  0  0
 15 16  1  0  0  0  0
M  END
$$$$
