113
 OpenBabel04041914573D

 36 38  0  0  1  0  0  0  0  0999 V2000
   -8.2985  -25.2101   16.7792 C   0  0  0  0  0  0  0  0  0  0  0  0
   -8.7709  -26.2345   15.9621 C   0  0  0  0  0  0  0  0  0  0  0  0
   -8.9721  -27.5104   16.5101 C   0  0  0  0  0  0  0  0  0  0  0  0
   -8.6318  -27.7612   17.8459 C   0  0  0  0  0  0  0  0  0  0  0  0
   -7.8708  -26.7948   18.5616 C   0  0  0  0  0  0  0  0  0  0  0  0
   -7.7674  -25.4945   18.0307 C   0  0  0  0  0  0  0  0  0  0  0  0
   -9.4978  -28.4796   15.6817 O   0  3  0  0  0  0  0  0  0  0  0  0
   -9.6933  -29.7612   16.1746 C   0  0  0  0  0  0  0  0  0  0  0  0
   -9.5678  -30.1048   17.4647 C   0  0  0  0  0  0  0  0  0  0  0  0
   -9.1626  -29.0373   18.4263 C   0  0  0  0  0  0  0  0  0  0  0  0
  -10.0500  -30.7829   15.1209 C   0  0  0  0  0  0  0  0  0  0  0  0
   -9.7043  -32.2011   15.5842 C   0  0  1  0  0  0  0  0  0  0  0  0
  -10.1880  -32.4556   16.9067 O   0  0  0  0  0  0  0  0  0  0  0  0
   -9.8538  -31.5065   17.9522 C   0  0  1  0  0  0  0  0  0  0  0  0
   -7.1589  -24.4664   18.7033 O   0  0  0  0  0  0  0  0  0  0  0  0
   -8.3760  -23.9026   16.3739 O   0  0  0  0  0  0  0  0  0  0  0  0
   -7.1772  -27.1441   19.8621 C   0  0  0  0  0  0  0  0  0  0  0  0
   -7.7321  -26.7501   20.9041 O   0  0  0  0  0  0  0  0  0  0  0  0
   -8.8870  -32.0341   18.8646 O   0  0  0  0  0  0  0  0  0  0  0  0
   -7.6661  -32.5342   18.3555 C   0  0  0  0  0  0  0  0  0  0  0  0
  -10.3234  -33.2691   14.6694 C   0  0  0  0  0  0  0  0  0  0  0  0
   -6.0545  -27.7436   19.7403 O   0  0  0  0  0  0  0  0  0  0  0  0
   -9.3268  -29.1893   19.6321 O   0  0  0  0  0  0  0  0  0  0  0  0
   -8.9832  -26.0428   14.9119 H   0  0  0  0  0  0  0  0  0  0  0  0
   -9.4914  -30.5615   14.1984 H   0  0  0  0  0  0  0  0  0  0  0  0
  -11.1222  -30.7124   14.8930 H   0  0  0  0  0  0  0  0  0  0  0  0
   -8.6170  -32.3318   15.5501 H   0  0  0  0  0  0  0  0  0  0  0  0
  -10.7766  -31.4499   18.5472 H   0  0  0  0  0  0  0  0  0  0  0  0
   -7.2354  -23.6615   18.1852 H   0  0  0  0  0  0  0  0  0  0  0  0
   -7.4817  -23.5264   16.3916 H   0  0  0  0  0  0  0  0  0  0  0  0
   -7.0523  -32.8724   19.2019 H   0  0  0  0  0  0  0  0  0  0  0  0
   -7.1137  -31.7646   17.8160 H   0  0  0  0  0  0  0  0  0  0  0  0
   -7.8476  -33.3955   17.7048 H   0  0  0  0  0  0  0  0  0  0  0  0
  -10.0687  -34.2769   15.0323 H   0  0  0  0  0  0  0  0  0  0  0  0
   -9.9608  -33.1700   13.6393 H   0  0  0  0  0  0  0  0  0  0  0  0
  -11.4210  -33.1911   14.6639 H   0  0  0  0  0  0  0  0  0  0  0  0
  1  2  2  0  0  0  0
  1  6  1  0  0  0  0
  1 16  1  0  0  0  0
  2  3  1  0  0  0  0
  2 24  1  0  0  0  0
  3  4  2  0  0  0  0
  3  7  1  0  0  0  0
  4  5  1  0  0  0  0
  4 10  1  0  0  0  0
  5  6  2  0  0  0  0
  5 17  1  0  0  0  0
  6 15  1  0  0  0  0
  7  8  1  0  0  0  0
  8  9  2  0  0  0  0
  8 11  1  0  0  0  0
  9 10  1  0  0  0  0
  9 14  1  0  0  0  0
 10 23  2  0  0  0  0
 11 12  1  0  0  0  0
 11 25  1  0  0  0  0
 11 26  1  0  0  0  0
 12 13  1  0  0  0  0
 12 21  1  0  0  0  0
 12 27  1  6  0  0  0
 13 14  1  0  0  0  0
 14 19  1  0  0  0  0
 14 28  1  1  0  0  0
 15 29  1  0  0  0  0
 16 30  1  0  0  0  0
 17 18  2  0  0  0  0
 17 22  1  0  0  0  0
 19 20  1  0  0  0  0
 20 31  1  0  0  0  0
 20 32  1  0  0  0  0
 20 33  1  0  0  0  0
 21 34  1  0  0  0  0
 21 35  1  0  0  0  0
 21 36  1  0  0  0  0
M  CHG  1   7   1
M  END
$$$$
