139
 OpenBabel04041915113D

 65 69  0  0  1  0  0  0  0  0999 V2000
   38.3376   -4.5170   21.3104 P   0  0  1  0  0  0  0  0  0  0  0  0
   39.4745   -5.4738   21.5791 O   0  0  0  0  0  0  0  0  0  0  0  0
   38.6746   -3.1551   20.7503 O   0  0  0  0  0  0  0  0  0  0  0  0
   37.3128   -5.2314   20.2584 O   0  0  0  0  0  0  0  0  0  0  0  0
   36.6735   -3.2063   23.3192 P   0  0  1  0  0  0  0  0  0  0  0  0
   35.6888   -2.6203   22.3365 O   0  0  0  0  0  0  0  0  0  0  0  0
   36.1334   -3.7077   24.6474 O   0  0  0  0  0  0  0  0  0  0  0  0
   37.4677   -4.4169   22.6453 O   0  0  0  0  0  0  0  0  0  0  0  0
   36.2087   -6.0377   15.8330 N   0  3  0  0  0  0  0  0  0  0  0  0
   36.7056   -4.7673   15.6505 C   0  0  0  0  0  0  0  0  0  0  0  0
   37.6942   -4.1579   16.3257 N   0  0  0  0  0  0  0  0  0  0  0  0
   37.8893   -2.8957   15.8817 C   0  0  0  0  0  0  0  0  0  0  0  0
   37.2777   -2.2609   14.8495 N   0  0  0  0  0  0  0  0  0  0  0  0
   36.3069   -2.9159   14.1851 C   0  0  0  0  0  0  0  0  0  0  0  0
   35.6968   -2.3049   13.1154 N   0  0  0  0  0  0  0  0  0  0  0  0
   35.9853   -4.2343   14.5966 C   0  0  0  0  0  0  0  0  0  0  0  0
   35.0704   -5.1455   14.1089 N   0  0  0  0  0  0  0  0  0  0  0  0
   35.2119   -6.1960   14.8882 C   0  0  0  0  0  0  0  0  0  0  0  0
   36.9511   -6.5976   20.3767 C   0  0  0  0  0  0  0  0  0  0  0  0
   37.0841   -7.3327   19.0299 C   0  0  1  0  0  0  0  0  0  0  0  0
   36.1054   -6.8206   18.0815 O   0  0  0  0  0  0  0  0  0  0  0  0
   36.6027   -7.0847   16.7645 C   0  0  2  0  0  0  0  0  0  0  0  0
   38.0863   -7.4720   16.8629 C   0  0  2  0  0  0  0  0  0  0  0  0
   38.2463   -8.8838   16.5520 O   0  0  0  0  0  0  0  0  0  0  0  0
   38.4342   -7.1937   18.3295 C   0  0  2  0  0  0  0  0  0  0  0  0
   39.4656   -8.0514   18.8195 O   0  0  0  0  0  0  0  0  0  0  0  0
   39.5981    1.5971   21.8795 O   0  0  0  0  0  0  0  0  0  0  0  0
   40.1642    0.5252   22.6322 C   0  0  0  0  0  0  0  0  0  0  0  0
   39.1696   -0.1054   23.6162 C   0  0  1  0  0  0  0  0  0  0  0  0
   38.5219    0.9838   24.3381 O   0  0  0  0  0  0  0  0  0  0  0  0
   37.1008    0.8206   24.1714 C   0  0  2  0  0  0  0  0  0  0  0  0
   36.8994   -0.0228   22.9278 C   0  0  0  0  0  0  0  0  0  0  0  0
   38.0837   -0.9578   22.9378 C   0  0  2  0  0  0  0  0  0  0  0  0
   37.8362   -2.1219   23.7263 O   0  0  0  0  0  0  0  0  0  0  0  0
   36.4705    2.1469   24.0867 N   0  3  0  0  0  0  0  0  0  0  0  0
   36.9438    3.1621   23.3047 C   0  0  0  0  0  0  0  0  0  0  0  0
   35.2955    2.3500   24.8306 C   0  0  0  0  0  0  0  0  0  0  0  0
   34.7846    1.5255   25.5839 O   0  0  0  0  0  0  0  0  0  0  0  0
   34.7167    3.5895   24.6954 N   0  3  0  0  0  0  0  0  0  0  0  0
   35.0945    4.5727   23.8329 C   0  0  0  0  0  0  0  0  0  0  0  0
   34.4224    5.5785   23.6334 O   0  0  0  0  0  0  0  0  0  0  0  0
   36.3675    4.3500   23.1477 C   0  0  0  0  0  0  0  0  0  0  0  0
   38.6627   -2.3229   16.3916 H   0  0  0  0  0  0  0  0  0  0  0  0
   34.9699   -2.8018   12.6235 H   0  0  0  0  0  0  0  0  0  0  0  0
   35.9738   -1.3637   12.8910 H   0  0  0  0  0  0  0  0  0  0  0  0
   34.6244   -7.1005   14.8098 H   0  0  0  0  0  0  0  0  0  0  0  0
   35.8955   -6.6441   20.6828 H   0  0  0  0  0  0  0  0  0  0  0  0
   37.5575   -7.1047   21.1282 H   0  0  0  0  0  0  0  0  0  0  0  0
   36.8565   -8.3979   19.1991 H   0  0  0  0  0  0  0  0  0  0  0  0
   36.0611   -7.9816   16.4325 H   0  0  0  0  0  0  0  0  0  0  0  0
   38.7280   -6.9124   16.1806 H   0  0  0  0  0  0  0  0  0  0  0  0
   37.9538   -9.0179   15.6329 H   0  0  0  0  0  0  0  0  0  0  0  0
   38.7813   -6.1617   18.4142 H   0  0  0  0  0  0  0  0  0  0  0  0
   39.1733   -8.9723   18.7426 H   0  0  0  0  0  0  0  0  0  0  0  0
   39.3303    2.2293   22.5595 H   0  0  0  0  0  0  0  0  0  0  0  0
   41.0194    0.9400   23.1848 H   0  0  0  0  0  0  0  0  0  0  0  0
   40.5360   -0.2180   21.9291 H   0  0  0  0  0  0  0  0  0  0  0  0
   39.7479   -0.7007   24.3337 H   0  0  0  0  0  0  0  0  0  0  0  0
   36.7154    0.2773   25.0416 H   0  0  0  0  0  0  0  0  0  0  0  0
   36.9166    0.5970   22.0235 H   0  0  0  0  0  0  0  0  0  0  0  0
   35.9443   -0.5332   22.9706 H   0  0  0  0  0  0  0  0  0  0  0  0
   38.3890   -1.2559   21.9404 H   0  0  0  0  0  0  0  0  0  0  0  0
   37.8507    2.9815   22.7504 H   0  0  0  0  0  0  0  0  0  0  0  0
   33.8642    3.7371   25.2023 H   0  0  0  0  0  0  0  0  0  0  0  0
   36.7746    5.1044   22.4970 H   0  0  0  0  0  0  0  0  0  0  0  0
  1  2  2  1  0  0  0
  1  3  1  0  0  0  0
  1  4  1  0  0  0  0
  1  8  1  0  0  0  0
  4 19  1  0  0  0  0
  5  6  2  6  0  0  0
  5  7  1  0  0  0  0
  5  8  1  0  0  0  0
  5 34  1  0  0  0  0
  9 10  1  0  0  0  0
  9 18  2  0  0  0  0
  9 22  1  0  0  0  0
 10 11  2  0  0  0  0
 10 16  1  0  0  0  0
 11 12  1  0  0  0  0
 12 13  2  0  0  0  0
 12 43  1  0  0  0  0
 13 14  1  0  0  0  0
 14 15  1  0  0  0  0
 14 16  2  0  0  0  0
 15 44  1  0  0  0  0
 15 45  1  0  0  0  0
 16 17  1  0  0  0  0
 17 18  1  0  0  0  0
 18 46  1  0  0  0  0
 19 20  1  0  0  0  0
 19 47  1  0  0  0  0
 19 48  1  0  0  0  0
 20 21  1  0  0  0  0
 20 25  1  0  0  0  0
 20 49  1  1  0  0  0
 21 22  1  0  0  0  0
 22 23  1  0  0  0  0
 22 50  1  6  0  0  0
 23 24  1  0  0  0  0
 23 25  1  0  0  0  0
 23 51  1  6  0  0  0
 24 52  1  0  0  0  0
 25 26  1  0  0  0  0
 25 53  1  1  0  0  0
 26 54  1  0  0  0  0
 27 28  1  0  0  0  0
 27 55  1  0  0  0  0
 28 29  1  0  0  0  0
 28 56  1  0  0  0  0
 28 57  1  0  0  0  0
 29 30  1  0  0  0  0
 29 33  1  0  0  0  0
 29 58  1  1  0  0  0
 30 31  1  0  0  0  0
 31 32  1  0  0  0  0
 31 35  1  0  0  0  0
 31 59  1  1  0  0  0
 32 33  1  0  0  0  0
 32 60  1  0  0  0  0
 32 61  1  0  0  0  0
 33 34  1  0  0  0  0
 33 62  1  6  0  0  0
 35 36  1  0  0  0  0
 35 37  1  0  0  0  0
 36 42  2  0  0  0  0
 36 63  1  0  0  0  0
 37 38  2  0  0  0  0
 37 39  1  0  0  0  0
 39 40  1  0  0  0  0
 39 64  1  0  0  0  0
 40 41  2  0  0  0  0
 40 42  1  0  0  0  0
 42 65  1  0  0  0  0
M  CHG  3   9   1  35   1  39   1
M  END
$$$$
