14A
 OpenBabel04041916553D

 55 56  0  0  0  0  0  0  0  0999 V2000
   10.2123  -12.9368   24.4927 N   0  0  0  0  0  0  0  0  0  0  0  0
   11.0302  -11.9519   24.1307 C   0  0  0  0  0  0  0  0  0  0  0  0
   10.8968  -10.7471   24.6616 N   0  0  0  0  0  0  0  0  0  0  0  0
   11.9523  -12.1938   23.1763 N   0  3  0  0  0  0  0  0  0  0  0  0
   12.9849  -11.2427   22.9500 O   0  0  0  0  0  0  0  0  0  0  0  0
   12.8796  -10.7535   21.6090 C   0  0  0  0  0  0  0  0  0  0  0  0
   13.4285  -11.7175   20.5676 C   0  0  0  0  0  0  0  0  0  0  0  0
   14.9315  -11.9111   20.6871 C   0  0  0  0  0  0  0  0  0  0  0  0
   15.1716  -12.9570   21.6401 O   0  0  0  0  0  0  0  0  0  0  0  0
   16.4392  -13.4711   21.6330 C   0  0  0  0  0  0  0  0  0  0  0  0
   17.4779  -12.9771   20.8466 C   0  0  0  0  0  0  0  0  0  0  0  0
   18.7360  -13.5546   20.9015 C   0  0  0  0  0  0  0  0  0  0  0  0
   18.9840  -14.6383   21.7308 C   0  0  0  0  0  0  0  0  0  0  0  0
   17.9585  -15.1237   22.5203 C   0  0  0  0  0  0  0  0  0  0  0  0
   16.6867  -14.5576   22.4828 C   0  0  0  0  0  0  0  0  0  0  0  0
   20.0414  -12.9585   19.9559 Cl  0  0  0  0  0  0  0  0  0  0  0  0
   18.2376  -16.2384   23.3767 C   0  0  0  0  0  0  0  0  0  0  0  0
   17.4445  -17.2042   23.2619 O   0  0  0  0  0  0  0  0  0  0  0  0
   19.1933  -16.3135   24.3411 N   0  0  0  0  0  0  0  0  0  0  0  0
   19.3049  -17.5184   25.2469 C   0  0  0  0  0  0  0  0  0  0  0  0
   18.0421  -17.8263   26.0400 C   0  0  0  0  0  0  0  0  0  0  0  0
   18.0288  -18.3184   27.3149 C   0  0  0  0  0  0  0  0  0  0  0  0
   19.8273  -15.0457   24.7368 C   0  0  0  0  0  0  0  0  0  0  0  0
   21.3153  -15.1538   24.5276 C   0  0  0  0  0  0  0  0  0  0  0  0
   21.9785  -14.5345   25.7292 C   0  0  0  0  0  0  0  0  0  0  0  0
   20.9196  -14.4197   26.8024 C   0  0  0  0  0  0  0  0  0  0  0  0
   19.6233  -14.8655   26.2078 C   0  0  0  0  0  0  0  0  0  0  0  0
   10.2926  -13.8523   24.0773 H   0  0  0  0  0  0  0  0  0  0  0  0
   11.5305  -10.0054   24.3652 H   0  0  0  0  0  0  0  0  0  0  0  0
   10.1624  -10.5312   25.3165 H   0  0  0  0  0  0  0  0  0  0  0  0
   11.9196  -13.0655   22.6901 H   0  0  0  0  0  0  0  0  0  0  0  0
   13.4520   -9.8207   21.6059 H   0  0  0  0  0  0  0  0  0  0  0  0
   11.8361  -10.4989   21.3820 H   0  0  0  0  0  0  0  0  0  0  0  0
   13.2026  -11.3243   19.5703 H   0  0  0  0  0  0  0  0  0  0  0  0
   12.9428  -12.6884   20.6880 H   0  0  0  0  0  0  0  0  0  0  0  0
   15.4191  -10.9810   21.0148 H   0  0  0  0  0  0  0  0  0  0  0  0
   15.3205  -12.1953   19.6981 H   0  0  0  0  0  0  0  0  0  0  0  0
   17.3206  -12.1391   20.1787 H   0  0  0  0  0  0  0  0  0  0  0  0
   19.9661  -15.0937   21.7685 H   0  0  0  0  0  0  0  0  0  0  0  0
   15.9029  -14.9771   23.1087 H   0  0  0  0  0  0  0  0  0  0  0  0
   20.1268  -17.3540   25.9589 H   0  0  0  0  0  0  0  0  0  0  0  0
   19.5742  -18.4025   24.6634 H   0  0  0  0  0  0  0  0  0  0  0  0
   17.0752  -17.6989   25.5687 H   0  0  0  0  0  0  0  0  0  0  0  0
   17.0871  -18.5424   27.7998 H   0  0  0  0  0  0  0  0  0  0  0  0
   18.9531  -18.4922   27.8376 H   0  0  0  0  0  0  0  0  0  0  0  0
   19.3939  -14.1982   24.1718 H   0  0  0  0  0  0  0  0  0  0  0  0
   21.6485  -14.6546   23.6131 H   0  0  0  0  0  0  0  0  0  0  0  0
   21.5948  -16.2064   24.4757 H   0  0  0  0  0  0  0  0  0  0  0  0
   22.3751  -13.5476   25.4706 H   0  0  0  0  0  0  0  0  0  0  0  0
   22.8111  -15.1652   26.0586 H   0  0  0  0  0  0  0  0  0  0  0  0
   20.8213  -13.3890   27.1321 H   0  0  0  0  0  0  0  0  0  0  0  0
   21.1807  -15.0427   27.6636 H   0  0  0  0  0  0  0  0  0  0  0  0
   19.3535  -15.8007   26.6723 H   0  0  0  0  0  0  0  0  0  0  0  0
   18.7955  -14.2024   26.4331 H   0  0  0  0  0  0  0  0  0  0  0  0
    9.5033  -12.7931   25.2083 H   0  0  0  0  0  0  0  0  0  0  0  0
  1  2  2  0  0  0  0
  1 28  1  0  0  0  0
  1 55  1  0  0  0  0
  2  3  1  0  0  0  0
  2  4  1  0  0  0  0
  3 29  1  0  0  0  0
  3 30  1  0  0  0  0
  4  5  1  0  0  0  0
  4 31  1  0  0  0  0
  5  6  1  0  0  0  0
  6  7  1  0  0  0  0
  6 32  1  0  0  0  0
  6 33  1  0  0  0  0
  7  8  1  0  0  0  0
  7 34  1  0  0  0  0
  7 35  1  0  0  0  0
  8  9  1  0  0  0  0
  8 36  1  0  0  0  0
  8 37  1  0  0  0  0
  9 10  1  0  0  0  0
 10 11  2  0  0  0  0
 10 15  1  0  0  0  0
 11 12  1  0  0  0  0
 11 38  1  0  0  0  0
 12 13  2  0  0  0  0
 12 16  1  0  0  0  0
 13 14  1  0  0  0  0
 13 39  1  0  0  0  0
 14 15  2  0  0  0  0
 14 17  1  0  0  0  0
 15 40  1  0  0  0  0
 17 18  2  0  0  0  0
 17 19  1  0  0  0  0
 19 20  1  0  0  0  0
 19 23  1  0  0  0  0
 20 21  1  0  0  0  0
 20 41  1  0  0  0  0
 20 42  1  0  0  0  0
 21 22  2  0  0  0  0
 21 43  1  0  0  0  0
 22 44  1  0  0  0  0
 22 45  1  0  0  0  0
 23 24  1  0  0  0  0
 23 27  1  0  0  0  0
 23 46  1  0  0  0  0
 24 25  1  0  0  0  0
 24 47  1  0  0  0  0
 24 48  1  0  0  0  0
 25 26  1  0  0  0  0
 25 49  1  0  0  0  0
 25 50  1  0  0  0  0
 26 27  1  0  0  0  0
 26 51  1  0  0  0  0
 26 52  1  0  0  0  0
 27 53  1  0  0  0  0
 27 54  1  0  0  0  0
M  CHG  1   4   1
M  END
$$$$
