156
 OpenBabel04041914393D

 52 54  0  0  0  0  0  0  0  0999 V2000
   34.7871   18.3216   88.4477 C   0  0  0  0  0  0  0  0  0  0  0  0
   35.8554   17.5185   87.7343 C   0  0  0  0  0  0  0  0  0  0  0  0
   36.6632   18.1030   86.7496 C   0  0  0  0  0  0  0  0  0  0  0  0
   37.6059   17.3435   86.0482 C   0  0  0  0  0  0  0  0  0  0  0  0
   37.7630   15.9743   86.3052 C   0  0  0  0  0  0  0  0  0  0  0  0
   38.7155   15.2084   85.4787 C   0  0  0  0  0  0  0  0  0  0  0  0
   38.9336   13.8882   85.5635 C   0  0  0  0  0  0  0  0  0  0  0  0
   36.9866   15.3988   87.3209 C   0  0  0  0  0  0  0  0  0  0  0  0
   36.0487   16.1619   88.0251 C   0  0  0  0  0  0  0  0  0  0  0  0
   39.8509   13.1141   84.6927 C   0  0  0  0  0  0  0  0  0  0  0  0
   41.0530   13.7383   84.0880 C   0  0  0  0  0  0  0  0  0  0  0  0
   41.4916   13.2536   82.8516 C   0  0  0  0  0  0  0  0  0  0  0  0
   42.6424   13.7651   82.2120 C   0  0  0  0  0  0  0  0  0  0  0  0
   43.0576   13.1830   80.8558 C   0  0  0  0  0  0  0  0  0  0  0  0
   44.4983   13.5977   80.4848 C   0  0  0  0  0  0  0  0  0  0  0  0
   44.7382   15.0816   80.7109 C   0  0  0  0  0  0  0  0  0  0  0  0
   44.5793   15.4777   82.1964 C   0  0  0  0  0  0  0  0  0  0  0  0
   43.3426   14.8273   82.8316 C   0  0  0  0  0  0  0  0  0  0  0  0
   42.9069   15.2736   84.0997 C   0  0  0  0  0  0  0  0  0  0  0  0
   41.7851   14.7312   84.7275 C   0  0  0  0  0  0  0  0  0  0  0  0
   42.0653   13.6854   79.7837 C   0  0  0  0  0  0  0  0  0  0  0  0
   43.0332   11.6352   80.8527 C   0  0  0  0  0  0  0  0  0  0  0  0
   44.4900   17.0220   82.2305 C   0  0  0  0  0  0  0  0  0  0  0  0
   45.8335   15.0449   82.9877 C   0  0  0  0  0  0  0  0  0  0  0  0
   34.5143   19.4687   87.9724 O   0  0  0  0  0  0  0  0  0  0  0  0
   34.2394   17.7837   89.4612 O   0  0  0  0  0  0  0  0  0  0  0  0
   39.6111   11.9261   84.4789 O   0  0  0  0  0  0  0  0  0  0  0  0
   36.5360   19.1606   86.5224 H   0  0  0  0  0  0  0  0  0  0  0  0
   38.1979   17.8423   85.2851 H   0  0  0  0  0  0  0  0  0  0  0  0
   39.2318   15.7992   84.7243 H   0  0  0  0  0  0  0  0  0  0  0  0
   38.3744   13.2535   86.2478 H   0  0  0  0  0  0  0  0  0  0  0  0
   37.0706   14.3506   87.5826 H   0  0  0  0  0  0  0  0  0  0  0  0
   35.4396   15.6943   88.7977 H   0  0  0  0  0  0  0  0  0  0  0  0
   40.9080   12.4636   82.3814 H   0  0  0  0  0  0  0  0  0  0  0  0
   44.7026   13.3540   79.4344 H   0  0  0  0  0  0  0  0  0  0  0  0
   45.2237   13.0211   81.0731 H   0  0  0  0  0  0  0  0  0  0  0  0
   44.0438   15.6576   80.0866 H   0  0  0  0  0  0  0  0  0  0  0  0
   45.7428   15.3441   80.3547 H   0  0  0  0  0  0  0  0  0  0  0  0
   43.4489   16.0543   84.6294 H   0  0  0  0  0  0  0  0  0  0  0  0
   41.5060   15.0943   85.7129 H   0  0  0  0  0  0  0  0  0  0  0  0
   41.0460   13.3337   79.9828 H   0  0  0  0  0  0  0  0  0  0  0  0
   42.3450   13.3265   78.7871 H   0  0  0  0  0  0  0  0  0  0  0  0
   42.0197   14.7791   79.7465 H   0  0  0  0  0  0  0  0  0  0  0  0
   42.0282   11.2277   81.0035 H   0  0  0  0  0  0  0  0  0  0  0  0
   43.6756   11.2269   81.6421 H   0  0  0  0  0  0  0  0  0  0  0  0
   43.3895   11.2406   79.8938 H   0  0  0  0  0  0  0  0  0  0  0  0
   44.4758   17.4218   83.2498 H   0  0  0  0  0  0  0  0  0  0  0  0
   43.5829   17.3764   81.7262 H   0  0  0  0  0  0  0  0  0  0  0  0
   45.3518   17.4748   81.7259 H   0  0  0  0  0  0  0  0  0  0  0  0
   45.9383   13.9552   83.0249 H   0  0  0  0  0  0  0  0  0  0  0  0
   45.7993   15.3983   84.0250 H   0  0  0  0  0  0  0  0  0  0  0  0
   46.7450   15.4540   82.5370 H   0  0  0  0  0  0  0  0  0  0  0  0
  1 26  2  0  0  0  0
  1 25  1  0  0  0  0
  1  2  1  0  0  0  0
  2  9  2  0  0  0  0
  2  3  1  0  0  0  0
  3  4  2  0  0  0  0
  3 28  1  0  0  0  0
  4  5  1  0  0  0  0
  4 29  1  0  0  0  0
  5  8  2  0  0  0  0
  5  6  1  0  0  0  0
  6  7  2  0  0  0  0
  6 30  1  0  0  0  0
  7 10  1  0  0  0  0
  7 31  1  0  0  0  0
  8  9  1  0  0  0  0
  8 32  1  0  0  0  0
  9 33  1  0  0  0  0
 10 27  2  0  0  0  0
 10 11  1  0  0  0  0
 11 20  2  0  0  0  0
 11 12  1  0  0  0  0
 12 13  2  0  0  0  0
 12 34  1  0  0  0  0
 13 18  1  0  0  0  0
 13 14  1  0  0  0  0
 14 22  1  0  0  0  0
 14 21  1  0  0  0  0
 14 15  1  0  0  0  0
 15 16  1  0  0  0  0
 15 35  1  0  0  0  0
 15 36  1  0  0  0  0
 16 17  1  0  0  0  0
 16 37  1  0  0  0  0
 16 38  1  0  0  0  0
 17 24  1  0  0  0  0
 17 23  1  0  0  0  0
 17 18  1  0  0  0  0
 18 19  2  0  0  0  0
 19 20  1  0  0  0  0
 19 39  1  0  0  0  0
 20 40  1  0  0  0  0
 21 41  1  0  0  0  0
 21 42  1  0  0  0  0
 21 43  1  0  0  0  0
 22 44  1  0  0  0  0
 22 45  1  0  0  0  0
 22 46  1  0  0  0  0
 23 47  1  0  0  0  0
 23 48  1  0  0  0  0
 23 49  1  0  0  0  0
 24 50  1  0  0  0  0
 24 51  1  0  0  0  0
 24 52  1  0  0  0  0
M  END
$$$$
