177
 OpenBabel04041916573D

 69 71  0  0  1  0  0  0  0  0999 V2000
   18.3473  -15.5175   24.5104 C   0  0  0  0  0  0  0  0  0  0  0  0
   19.6884  -14.8008   24.2928 C   0  0  0  0  0  0  0  0  0  0  0  0
   18.6022  -16.7863   25.3257 C   0  0  0  0  0  0  0  0  0  0  0  0
   20.3823  -14.4772   25.6039 C   0  0  0  0  0  0  0  0  0  0  0  0
   19.2474  -16.4616   26.6606 C   0  0  0  0  0  0  0  0  0  0  0  0
   20.5619  -15.7237   26.4569 C   0  0  0  0  0  0  0  0  0  0  0  0
   17.1254  -14.5150   22.5843 C   0  0  0  0  0  0  0  0  0  0  0  0
   16.0962  -14.0454   23.0582 O   0  0  0  0  0  0  0  0  0  0  0  0
   16.5563  -16.7759   23.3157 N   0  3  0  0  0  0  0  0  0  0  0  0
   17.6873  -15.8127   23.1584 C   0  0  2  0  0  0  0  0  0  0  0  0
   17.7966  -13.9975   21.5049 N   0  0  0  0  0  0  0  0  0  0  0  0
   19.0065  -14.5408   20.8860 C   0  0  0  0  0  0  0  0  0  0  0  0
   17.3813  -12.7486   20.8626 C   0  0  1  0  0  0  0  0  0  0  0  0
   18.1925  -12.7800   19.5683 C   0  0  0  0  0  0  0  0  0  0  0  0
   19.4955  -13.4135   20.0118 C   0  0  0  0  0  0  0  0  0  0  0  0
   15.8896  -12.7540   20.5541 C   0  0  0  0  0  0  0  0  0  0  0  0
   15.3280  -13.7665   20.0856 O   0  0  0  0  0  0  0  0  0  0  0  0
   15.2402  -11.5806   20.8295 N   0  0  0  0  0  0  0  0  0  0  0  0
   13.8228  -11.4063   20.6029 C   0  0  0  0  0  0  0  0  0  0  0  0
   12.9988  -11.4009   21.8620 C   0  0  0  0  0  0  0  0  0  0  0  0
   12.2058  -12.5026   22.1933 C   0  0  0  0  0  0  0  0  0  0  0  0
   11.2961  -12.4340   23.2542 C   0  0  0  0  0  0  0  0  0  0  0  0
   11.2630  -11.3057   24.0747 C   0  0  0  0  0  0  0  0  0  0  0  0
   12.1050  -10.2306   23.8039 C   0  0  0  0  0  0  0  0  0  0  0  0
   12.9670  -10.2751   22.7033 C   0  0  0  0  0  0  0  0  0  0  0  0
   12.0623   -8.8250   24.7972 Cl  0  0  0  0  0  0  0  0  0  0  0  0
   12.3537  -13.6582   21.4696 O   0  0  0  0  0  0  0  0  0  0  0  0
   12.9123  -14.6848   22.2918 C   0  0  0  0  0  0  0  0  0  0  0  0
   12.6890  -16.0685   21.6943 C   0  0  0  0  0  0  0  0  0  0  0  0
   12.7317  -17.0831   22.3856 O   0  0  0  0  0  0  0  0  0  0  0  0
   12.5423  -16.0972   20.3268 N   0  0  0  0  0  0  0  0  0  0  0  0
   12.2519  -17.3061   19.5856 C   0  0  0  0  0  0  0  0  0  0  0  0
   10.8665  -17.8403   19.8819 C   0  0  0  0  0  0  0  0  0  0  0  0
   17.6916  -14.8513   25.0888 H   0  0  0  0  0  0  0  0  0  0  0  0
   19.5343  -13.8697   23.7392 H   0  0  0  0  0  0  0  0  0  0  0  0
   20.3510  -15.4471   23.7009 H   0  0  0  0  0  0  0  0  0  0  0  0
   19.2641  -17.4548   24.7594 H   0  0  0  0  0  0  0  0  0  0  0  0
   17.6624  -17.3095   25.5152 H   0  0  0  0  0  0  0  0  0  0  0  0
   19.7848  -13.7397   26.1516 H   0  0  0  0  0  0  0  0  0  0  0  0
   21.3616  -14.0317   25.3938 H   0  0  0  0  0  0  0  0  0  0  0  0
   19.4243  -17.3917   27.2112 H   0  0  0  0  0  0  0  0  0  0  0  0
   18.5618  -15.8430   27.2530 H   0  0  0  0  0  0  0  0  0  0  0  0
   20.9772  -15.4419   27.4280 H   0  0  0  0  0  0  0  0  0  0  0  0
   21.2746  -16.3950   25.9612 H   0  0  0  0  0  0  0  0  0  0  0  0
   16.1035  -16.9599   22.4108 H   0  0  0  0  0  0  0  0  0  0  0  0
   16.8537  -17.6710   23.7118 H   0  0  0  0  0  0  0  0  0  0  0  0
   18.3927  -16.3007   22.4826 H   0  0  0  0  0  0  0  0  0  0  0  0
   18.7291  -15.4226   20.2970 H   0  0  0  0  0  0  0  0  0  0  0  0
   19.7525  -14.8353   21.6270 H   0  0  0  0  0  0  0  0  0  0  0  0
   17.6659  -11.8887   21.4814 H   0  0  0  0  0  0  0  0  0  0  0  0
   18.3501  -11.7907   19.1388 H   0  0  0  0  0  0  0  0  0  0  0  0
   17.7157  -13.4258   18.8171 H   0  0  0  0  0  0  0  0  0  0  0  0
   20.0975  -13.7667   19.1765 H   0  0  0  0  0  0  0  0  0  0  0  0
   20.0717  -12.6935   20.6069 H   0  0  0  0  0  0  0  0  0  0  0  0
   15.7564  -10.8176   21.2477 H   0  0  0  0  0  0  0  0  0  0  0  0
   13.4595  -12.1871   19.9255 H   0  0  0  0  0  0  0  0  0  0  0  0
   13.6845  -10.4486   20.0931 H   0  0  0  0  0  0  0  0  0  0  0  0
   10.6277  -13.2648   23.4666 H   0  0  0  0  0  0  0  0  0  0  0  0
   10.5887  -11.2837   24.9275 H   0  0  0  0  0  0  0  0  0  0  0  0
   13.6061   -9.4225   22.4892 H   0  0  0  0  0  0  0  0  0  0  0  0
   12.4499  -14.6965   23.2838 H   0  0  0  0  0  0  0  0  0  0  0  0
   13.9879  -14.5491   22.4057 H   0  0  0  0  0  0  0  0  0  0  0  0
   12.5821  -15.2039   19.8432 H   0  0  0  0  0  0  0  0  0  0  0  0
   13.0047  -18.0599   19.8404 H   0  0  0  0  0  0  0  0  0  0  0  0
   12.3388  -17.0699   18.5202 H   0  0  0  0  0  0  0  0  0  0  0  0
   10.6773  -18.7477   19.3007 H   0  0  0  0  0  0  0  0  0  0  0  0
   10.1069  -17.0953   19.6306 H   0  0  0  0  0  0  0  0  0  0  0  0
   10.7662  -18.0863   20.9442 H   0  0  0  0  0  0  0  0  0  0  0  0
   15.8325  -16.3604   23.9195 H   0  0  0  0  0  0  0  0  0  0  0  0
  1  2  1  0  0  0  0
  1  3  1  0  0  0  0
  1 10  1  0  0  0  0
  1 34  1  0  0  0  0
  2  4  1  0  0  0  0
  2 35  1  0  0  0  0
  2 36  1  0  0  0  0
  3  5  1  0  0  0  0
  3 37  1  0  0  0  0
  3 38  1  0  0  0  0
  4  6  1  0  0  0  0
  4 39  1  0  0  0  0
  4 40  1  0  0  0  0
  5  6  1  0  0  0  0
  5 41  1  0  0  0  0
  5 42  1  0  0  0  0
  6 43  1  0  0  0  0
  6 44  1  0  0  0  0
  7  8  2  0  0  0  0
  7 10  1  0  0  0  0
  7 11  1  0  0  0  0
  9 10  1  0  0  0  0
  9 45  1  0  0  0  0
  9 46  1  0  0  0  0
  9 69  1  0  0  0  0
 10 47  1  6  0  0  0
 11 12  1  0  0  0  0
 11 13  1  0  0  0  0
 12 15  1  0  0  0  0
 12 48  1  0  0  0  0
 12 49  1  0  0  0  0
 13 14  1  0  0  0  0
 13 16  1  0  0  0  0
 13 50  1  1  0  0  0
 14 15  1  0  0  0  0
 14 51  1  0  0  0  0
 14 52  1  0  0  0  0
 15 53  1  0  0  0  0
 15 54  1  0  0  0  0
 16 17  2  0  0  0  0
 16 18  1  0  0  0  0
 18 19  1  0  0  0  0
 18 55  1  0  0  0  0
 19 20  1  0  0  0  0
 19 56  1  0  0  0  0
 19 57  1  0  0  0  0
 20 21  2  0  0  0  0
 20 25  1  0  0  0  0
 21 22  1  0  0  0  0
 21 27  1  0  0  0  0
 22 23  2  0  0  0  0
 22 58  1  0  0  0  0
 23 24  1  0  0  0  0
 23 59  1  0  0  0  0
 24 25  2  0  0  0  0
 24 26  1  0  0  0  0
 25 60  1  0  0  0  0
 27 28  1  0  0  0  0
 28 29  1  0  0  0  0
 28 61  1  0  0  0  0
 28 62  1  0  0  0  0
 29 30  2  0  0  0  0
 29 31  1  0  0  0  0
 31 32  1  0  0  0  0
 31 63  1  0  0  0  0
 32 33  1  0  0  0  0
 32 64  1  0  0  0  0
 32 65  1  0  0  0  0
 33 66  1  0  0  0  0
 33 67  1  0  0  0  0
 33 68  1  0  0  0  0
M  CHG  1   9   1
M  END
$$$$
