1AC
 OpenBabel04041917443D

 14 14  0  0  0  0  0  0  0  0999 V2000
   20.7740   33.5200    6.9504 C   0  0  0  0  0  0  0  0  0  0  0  0
   20.0606   33.2897    8.2590 C   0  0  0  0  0  0  0  0  0  0  0  0
   21.3224   32.5227    7.9353 C   0  0  0  0  0  0  0  0  0  0  0  0
   22.5785   32.7916    8.6862 C   0  0  0  0  0  0  0  0  0  0  0  0
   22.8862   33.9743    9.0232 O   0  0  0  0  0  0  0  0  0  0  0  0
   23.2423   31.7258    8.9122 O   0  0  0  0  0  0  0  0  0  0  0  0
   21.1677   31.0932    7.5497 N   0  3  0  0  0  0  0  0  0  0  0  0
   21.3257   34.4504    6.8317 H   0  0  0  0  0  0  0  0  0  0  0  0
   20.3138   33.1617    6.0409 H   0  0  0  0  0  0  0  0  0  0  0  0
   19.1070   32.7812    8.2483 H   0  0  0  0  0  0  0  0  0  0  0  0
   20.1330   34.0739    9.0079 H   0  0  0  0  0  0  0  0  0  0  0  0
   21.6473   30.5880    8.3181 H   0  0  0  0  0  0  0  0  0  0  0  0
   20.2052   30.7881    7.4189 H   0  0  0  0  0  0  0  0  0  0  0  0
   21.7687   30.9190    6.7357 H   0  0  0  0  0  0  0  0  0  0  0  0
  1  2  1  0  0  0  0
  1  3  1  0  0  0  0
  1  8  1  0  0  0  0
  1  9  1  0  0  0  0
  2  3  1  0  0  0  0
  2 10  1  0  0  0  0
  2 11  1  0  0  0  0
  3  4  1  0  0  0  0
  3  7  1  0  0  0  0
  4  5  2  0  0  0  0
  4  6  1  0  0  0  0
  7 12  1  0  0  0  0
  7 13  1  0  0  0  0
  7 14  1  0  0  0  0
M  CHG  1   7   1
M  END
$$$$
