1DA
 OpenBabel04041913543D

 34 36  0  0  1  0  0  0  0  0999 V2000
    8.5991   20.5421   35.4069 O   0  0  0  0  0  0  0  0  0  0  0  0
    9.2794   20.0082   36.5399 C   0  0  0  0  0  0  0  0  0  0  0  0
    8.3903   19.0354   37.3064 C   0  0  1  0  0  0  0  0  0  0  0  0
    7.2157   19.7229   37.7946 O   0  0  0  0  0  0  0  0  0  0  0  0
    7.8692   17.8819   36.4506 C   0  0  1  0  0  0  0  0  0  0  0  0
    8.7579   16.7823   36.3486 O   0  0  0  0  0  0  0  0  0  0  0  0
    6.6019   17.4830   37.1672 C   0  0  1  0  0  0  0  0  0  0  0  0
    6.8872   16.5204   38.1843 O   0  0  0  0  0  0  0  0  0  0  0  0
    6.1682   18.7601   37.8736 C   0  0  2  0  0  0  0  0  0  0  0  0
    4.9452   19.3311   37.3717 N   0  3  0  0  0  0  0  0  0  0  0  0
    4.5363   19.4298   36.0697 C   0  0  0  0  0  0  0  0  0  0  0  0
    3.2761   19.7993   35.9938 N   0  0  0  0  0  0  0  0  0  0  0  0
    2.8613   19.9498   37.2717 C   0  0  0  0  0  0  0  0  0  0  0  0
    1.5941   20.2829   37.8229 C   0  0  0  0  0  0  0  0  0  0  0  0
    0.5051   20.4956   37.0315 N   0  0  0  0  0  0  0  0  0  0  0  0
    1.4905   20.3122   39.2215 C   0  0  0  0  0  0  0  0  0  0  0  0
    2.5645   20.0142   40.0319 C   0  0  0  0  0  0  0  0  0  0  0  0
    3.7502   19.6885   39.5045 N   0  3  0  0  0  0  0  0  0  0  0  0
    3.8743   19.6618   38.1549 C   0  0  0  0  0  0  0  0  0  0  0  0
    8.4748   19.8369   34.7472 H   0  0  0  0  0  0  0  0  0  0  0  0
    9.5358   20.8573   37.1812 H   0  0  0  0  0  0  0  0  0  0  0  0
   10.2046   19.5198   36.2169 H   0  0  0  0  0  0  0  0  0  0  0  0
    8.9490   18.6506   38.1697 H   0  0  0  0  0  0  0  0  0  0  0  0
    7.6251   18.2120   35.4363 H   0  0  0  0  0  0  0  0  0  0  0  0
    8.9847   16.4728   37.2469 H   0  0  0  0  0  0  0  0  0  0  0  0
    5.8439   17.0667   36.4980 H   0  0  0  0  0  0  0  0  0  0  0  0
    7.2886   15.7564   37.7274 H   0  0  0  0  0  0  0  0  0  0  0  0
    6.0156   18.5453   38.9335 H   0  0  0  0  0  0  0  0  0  0  0  0
    5.1806   19.1853   35.2321 H   0  0  0  0  0  0  0  0  0  0  0  0
   -0.3855   20.8097   37.4139 H   0  0  0  0  0  0  0  0  0  0  0  0
    0.6275   20.5030   36.0297 H   0  0  0  0  0  0  0  0  0  0  0  0
    0.5196   20.5614   39.6682 H   0  0  0  0  0  0  0  0  0  0  0  0
    2.4998   20.0352   41.1172 H   0  0  0  0  0  0  0  0  0  0  0  0
    4.5327   19.4814   40.1098 H   0  0  0  0  0  0  0  0  0  0  0  0
  1  2  1  0  0  0  0
  1 20  1  0  0  0  0
  2  3  1  0  0  0  0
  2 21  1  0  0  0  0
  2 22  1  0  0  0  0
  3  4  1  0  0  0  0
  3  5  1  0  0  0  0
  3 23  1  1  0  0  0
  4  9  1  0  0  0  0
  5  6  1  0  0  0  0
  5  7  1  0  0  0  0
  5 24  1  6  0  0  0
  6 25  1  0  0  0  0
  7  8  1  0  0  0  0
  7  9  1  0  0  0  0
  7 26  1  6  0  0  0
  8 27  1  0  0  0  0
  9 10  1  0  0  0  0
  9 28  1  1  0  0  0
 10 11  2  0  0  0  0
 10 19  1  0  0  0  0
 11 12  1  0  0  0  0
 11 29  1  0  0  0  0
 12 13  1  0  0  0  0
 13 14  2  0  0  0  0
 13 19  1  0  0  0  0
 14 15  1  0  0  0  0
 14 16  1  0  0  0  0
 15 30  1  0  0  0  0
 15 31  1  0  0  0  0
 16 17  2  0  0  0  0
 16 32  1  0  0  0  0
 17 18  1  0  0  0  0
 17 33  1  0  0  0  0
 18 19  2  0  0  0  0
 18 34  1  0  0  0  0
M  CHG  2  10   1  18   1
M  END
$$$$
