1UN
 OpenBabel04041916123D

 86 89  0  0  1  0  0  0  0  0999 V2000
    2.6494   -4.1551   16.3255 C   0  0  2  0  0  0  0  0  0  0  0  0
    3.4635   -5.4343   16.5993 C   0  0  1  0  0  0  0  0  0  0  0  0
    2.6908   -6.6791   16.1582 C   0  0  0  0  0  0  0  0  0  0  0  0
    2.2606   -6.5458   14.7042 C   0  0  0  0  0  0  0  0  0  0  0  0
    1.4424   -5.2694   14.4964 C   0  0  0  0  0  0  0  0  0  0  0  0
    2.2757   -4.0356   14.8375 C   0  0  0  0  0  0  0  0  0  0  0  0
    4.7084   -2.8481   16.0786 N   0  3  1  0  0  0  0  0  0  0  0  0
    5.5687   -4.0592   16.3188 C   0  0  1  0  0  0  0  0  0  0  0  0
    4.8276   -5.3208   15.9027 C   0  0  0  0  0  0  0  0  0  0  0  0
    3.4309   -2.9755   16.8282 C   0  0  0  0  0  0  0  0  0  0  0  0
    6.8444   -3.9773   15.4879 C   0  0  0  0  0  0  0  0  0  0  0  0
    7.9044   -4.4497   16.2391 N   0  0  0  0  0  0  0  0  0  0  0  0
    9.2811   -4.5432   15.7554 C   0  0  0  0  0  0  0  0  0  0  0  0
    9.8308   -3.1599   15.4218 C   0  0  0  0  0  0  0  0  0  0  0  0
    9.3401   -5.4064   14.4921 C   0  0  0  0  0  0  0  0  0  0  0  0
   10.1152   -5.1185   16.9124 C   0  0  0  0  0  0  0  0  0  0  0  0
    6.8412   -3.5309   14.3763 O   0  0  0  0  0  0  0  0  0  0  0  0
    5.3560   -1.5776   16.5037 C   0  0  0  0  0  0  0  0  0  0  0  0
    4.8361   -0.4339   15.6549 C   0  0  2  0  0  0  0  0  0  0  0  0
    5.5067   -0.2919   14.2887 C   0  0  1  0  0  0  0  0  0  0  0  0
    5.0288    0.7483   16.4218 O   0  0  0  0  0  0  0  0  0  0  0  0
    4.7582    0.7375   13.5974 N   0  0  0  0  0  0  0  0  0  0  0  0
    6.9430    0.1673   14.3308 C   0  0  0  0  0  0  0  0  0  0  0  0
    3.8867    0.3747   12.6039 C   0  0  0  0  0  0  0  0  0  0  0  0
    3.7006   -0.7762   12.3101 O   0  0  0  0  0  0  0  0  0  0  0  0
    3.1868    1.4930   11.9713 C   0  0  0  0  0  0  0  0  0  0  0  0
    3.9373    2.5947   11.5263 C   0  0  0  0  0  0  0  0  0  0  0  0
    3.3193    3.6800   10.9169 C   0  0  0  0  0  0  0  0  0  0  0  0
    1.9397    3.6551   10.7488 C   0  0  0  0  0  0  0  0  0  0  0  0
    1.1999    2.5727   11.2359 C   0  0  0  0  0  0  0  0  0  0  0  0
    1.7999    1.4693   11.8337 C   0  0  0  0  0  0  0  0  0  0  0  0
   -0.1636    2.6151   11.2069 O   0  0  0  0  0  0  0  0  0  0  0  0
    0.9396    0.3494   12.3315 C   0  0  0  0  0  0  0  0  0  0  0  0
    7.7765   -0.2990   12.7818 S   0  0  0  0  0  0  0  0  0  0  0  0
    7.7018    1.1921   11.8308 C   0  0  0  0  0  0  0  0  0  0  0  0
    7.9655    1.0778   10.4605 C   0  0  0  0  0  0  0  0  0  0  0  0
    7.9708    2.2137    9.6793 C   0  0  0  0  0  0  0  0  0  0  0  0
    7.7147    3.4602   10.2554 C   0  0  0  0  0  0  0  0  0  0  0  0
    7.4512    3.5851   11.6176 C   0  0  0  0  0  0  0  0  0  0  0  0
    7.4518    2.4456   12.3921 C   0  0  0  0  0  0  0  0  0  0  0  0
    1.7144   -4.1926   16.8912 H   0  0  0  0  0  0  0  0  0  0  0  0
    3.6398   -5.5284   17.6780 H   0  0  0  0  0  0  0  0  0  0  0  0
    1.7970   -6.7959   16.7909 H   0  0  0  0  0  0  0  0  0  0  0  0
    3.3108   -7.5776   16.2873 H   0  0  0  0  0  0  0  0  0  0  0  0
    1.6782   -7.4247   14.4150 H   0  0  0  0  0  0  0  0  0  0  0  0
    3.1546   -6.5094   14.0727 H   0  0  0  0  0  0  0  0  0  0  0  0
    0.5632   -5.3024   15.1567 H   0  0  0  0  0  0  0  0  0  0  0  0
    1.0916   -5.2265   13.4631 H   0  0  0  0  0  0  0  0  0  0  0  0
    3.1728   -3.9922   14.2021 H   0  0  0  0  0  0  0  0  0  0  0  0
    1.7165   -3.1073   14.6494 H   0  0  0  0  0  0  0  0  0  0  0  0
    5.8022   -4.0685   17.3901 H   0  0  0  0  0  0  0  0  0  0  0  0
    4.6943   -5.3065   14.8126 H   0  0  0  0  0  0  0  0  0  0  0  0
    5.4429   -6.1966   16.1369 H   0  0  0  0  0  0  0  0  0  0  0  0
    3.7131   -3.1045   17.8790 H   0  0  0  0  0  0  0  0  0  0  0  0
    2.8886   -2.0407   16.7115 H   0  0  0  0  0  0  0  0  0  0  0  0
    7.7136   -4.8313   17.1486 H   0  0  0  0  0  0  0  0  0  0  0  0
   10.8681   -3.2378   15.0753 H   0  0  0  0  0  0  0  0  0  0  0  0
    9.8025   -2.5110   16.3047 H   0  0  0  0  0  0  0  0  0  0  0  0
    9.2362   -2.6953   14.6297 H   0  0  0  0  0  0  0  0  0  0  0  0
   10.3627   -5.4763   14.1043 H   0  0  0  0  0  0  0  0  0  0  0  0
    8.7156   -4.9724   13.6971 H   0  0  0  0  0  0  0  0  0  0  0  0
    8.9679   -6.4163   14.6920 H   0  0  0  0  0  0  0  0  0  0  0  0
   11.1744   -5.1953   16.6438 H   0  0  0  0  0  0  0  0  0  0  0  0
    9.7505   -6.1133   17.1963 H   0  0  0  0  0  0  0  0  0  0  0  0
   10.0383   -4.4727   17.8046 H   0  0  0  0  0  0  0  0  0  0  0  0
    6.4406   -1.6588   16.4505 H   0  0  0  0  0  0  0  0  0  0  0  0
    5.0802   -1.4227   17.5564 H   0  0  0  0  0  0  0  0  0  0  0  0
    3.7531   -0.5665   15.4733 H   0  0  0  0  0  0  0  0  0  0  0  0
    5.4501   -1.2496   13.7517 H   0  0  0  0  0  0  0  0  0  0  0  0
    4.5331    0.6676   17.2531 H   0  0  0  0  0  0  0  0  0  0  0  0
    4.8811    1.7062   13.8539 H   0  0  0  0  0  0  0  0  0  0  0  0
    7.4834   -0.2931   15.1440 H   0  0  0  0  0  0  0  0  0  0  0  0
    6.9540    1.2324   14.5094 H   0  0  0  0  0  0  0  0  0  0  0  0
    5.0111    2.5945   11.6298 H   0  0  0  0  0  0  0  0  0  0  0  0
    3.9058    4.5336   10.5798 H   0  0  0  0  0  0  0  0  0  0  0  0
    1.4448    4.4892   10.2606 H   0  0  0  0  0  0  0  0  0  0  0  0
   -0.4516    2.7385   10.2886 H   0  0  0  0  0  0  0  0  0  0  0  0
    1.5317   -0.4486   12.7784 H   0  0  0  0  0  0  0  0  0  0  0  0
    0.3597   -0.0788   11.5064 H   0  0  0  0  0  0  0  0  0  0  0  0
    0.2530    0.7228   13.0984 H   0  0  0  0  0  0  0  0  0  0  0  0
    8.1655    0.0965   10.0255 H   0  0  0  0  0  0  0  0  0  0  0  0
    8.1772    2.1344    8.6167 H   0  0  0  0  0  0  0  0  0  0  0  0
    7.7245    4.3443    9.6350 H   0  0  0  0  0  0  0  0  0  0  0  0
    7.2455    4.5512   12.0656 H   0  0  0  0  0  0  0  0  0  0  0  0
    7.2399    2.5560   13.4401 H   0  0  0  0  0  0  0  0  0  0  0  0
    4.5468   -2.7949   15.0551 H   0  0  0  0  0  0  0  0  0  0  0  0
  1 10  1  0  0  0  0
  1  6  1  0  0  0  0
  1  2  1  0  0  0  0
  1 41  1  1  0  0  0
  2  9  1  0  0  0  0
  2  3  1  0  0  0  0
  2 42  1  1  0  0  0
  3  4  1  0  0  0  0
  3 43  1  0  0  0  0
  3 44  1  0  0  0  0
  4  5  1  0  0  0  0
  4 45  1  0  0  0  0
  4 46  1  0  0  0  0
  5  6  1  0  0  0  0
  5 47  1  0  0  0  0
  5 48  1  0  0  0  0
  6 49  1  0  0  0  0
  6 50  1  0  0  0  0
  7  8  1  0  0  0  0
  7 18  1  0  0  0  0
  7 10  1  0  0  0  0
  7 86  1  6  0  0  0
  8  9  1  0  0  0  0
  8 11  1  0  0  0  0
  8 51  1  1  0  0  0
  9 52  1  0  0  0  0
  9 53  1  0  0  0  0
 10 54  1  0  0  0  0
 10 55  1  0  0  0  0
 11 17  2  0  0  0  0
 11 12  1  0  0  0  0
 12 13  1  0  0  0  0
 12 56  1  0  0  0  0
 13 16  1  0  0  0  0
 13 15  1  0  0  0  0
 13 14  1  0  0  0  0
 14 57  1  0  0  0  0
 14 58  1  0  0  0  0
 14 59  1  0  0  0  0
 15 60  1  0  0  0  0
 15 61  1  0  0  0  0
 15 62  1  0  0  0  0
 16 63  1  0  0  0  0
 16 64  1  0  0  0  0
 16 65  1  0  0  0  0
 18 19  1  0  0  0  0
 18 66  1  0  0  0  0
 18 67  1  0  0  0  0
 19 21  1  0  0  0  0
 19 20  1  0  0  0  0
 19 68  1  6  0  0  0
 20 23  1  0  0  0  0
 20 22  1  0  0  0  0
 20 69  1  6  0  0  0
 21 70  1  0  0  0  0
 22 24  1  0  0  0  0
 22 71  1  0  0  0  0
 23 34  1  0  0  0  0
 23 72  1  0  0  0  0
 23 73  1  0  0  0  0
 24 26  1  0  0  0  0
 24 25  2  0  0  0  0
 26 31  2  0  0  0  0
 26 27  1  0  0  0  0
 27 28  2  0  0  0  0
 27 74  1  0  0  0  0
 28 29  1  0  0  0  0
 28 75  1  0  0  0  0
 29 30  2  0  0  0  0
 29 76  1  0  0  0  0
 30 32  1  0  0  0  0
 30 31  1  0  0  0  0
 31 33  1  0  0  0  0
 32 77  1  0  0  0  0
 33 78  1  0  0  0  0
 33 79  1  0  0  0  0
 33 80  1  0  0  0  0
 34 35  1  0  0  0  0
 35 40  2  0  0  0  0
 35 36  1  0  0  0  0
 36 37  2  0  0  0  0
 36 81  1  0  0  0  0
 37 38  1  0  0  0  0
 37 82  1  0  0  0  0
 38 39  2  0  0  0  0
 38 83  1  0  0  0  0
 39 40  1  0  0  0  0
 39 84  1  0  0  0  0
 40 85  1  0  0  0  0
M  CHG  1   7   1
M  END
$$$$
