1ZK
 OpenBabel04041915063D

118122  0  0  1  0  0  0  0  0999 V2000
    4.3591   13.0759   17.8595 C   0  0  0  0  0  0  0  0  0  0  0  0
    4.5527   11.6274   18.3879 C   0  0  0  0  0  0  0  0  0  0  0  0
    5.1150   10.5923   20.5108 C   0  0  0  0  0  0  0  0  0  0  0  0
    6.4122   10.4052   21.0062 C   0  0  0  0  0  0  0  0  0  0  0  0
    6.7054    9.3247   21.8468 C   0  0  0  0  0  0  0  0  0  0  0  0
    5.6968    8.4420   22.2253 C   0  0  0  0  0  0  0  0  0  0  0  0
    4.3874    8.6337   21.7833 C   0  0  0  0  0  0  0  0  0  0  0  0
    3.3708    7.7463   22.1609 C   0  0  0  0  0  0  0  0  0  0  0  0
    2.0698    7.9377   21.7007 C   0  0  0  0  0  0  0  0  0  0  0  0
    1.7708    9.0225   20.8741 C   0  0  0  0  0  0  0  0  0  0  0  0
    2.7689    9.9167   20.5116 C   0  0  0  0  0  0  0  0  0  0  0  0
    4.0859    9.7296   20.9290 C   0  0  0  0  0  0  0  0  0  0  0  0
    5.1551   13.6657   17.1748 O   0  0  0  0  0  0  0  0  0  0  0  0
    4.8836   11.7371   19.7765 O   0  0  0  0  0  0  0  0  0  0  0  0
    3.1516   13.6295   18.2425 N   0  0  0  0  0  0  0  0  0  0  0  0
    2.6967   14.9570   17.7921 C   0  0  2  0  0  0  0  0  0  0  0  0
    2.0405   15.5862   19.0179 C   0  0  0  0  0  0  0  0  0  0  0  0
    0.9183   15.2913   19.3720 O   0  0  0  0  0  0  0  0  0  0  0  0
    1.6410   14.8135   16.6959 C   0  0  0  0  0  0  0  0  0  0  0  0
    2.1728   13.9756   15.5910 C   0  0  0  0  0  0  0  0  0  0  0  0
    2.2866   12.6064   15.6562 N   0  3  0  0  0  0  0  0  0  0  0  0
    2.7232   14.3177   14.3865 C   0  0  0  0  0  0  0  0  0  0  0  0
    2.9100   12.1898   14.5207 C   0  0  0  0  0  0  0  0  0  0  0  0
    3.1755   13.1950   13.7303 N   0  0  0  0  0  0  0  0  0  0  0  0
    2.8894   16.3876   19.7646 N   0  0  0  0  0  0  0  0  0  0  0  0
    2.3831   17.0157   20.9685 C   0  0  1  0  0  0  0  0  0  0  0  0
    2.9954   16.5467   22.2446 C   0  0  0  0  0  0  0  0  0  0  0  0
    3.3949   15.0755   22.2425 C   0  0  0  0  0  0  0  0  0  0  0  0
    2.8011   14.3741   23.4670 C   0  0  0  0  0  0  0  0  0  0  0  0
    4.9248   15.0385   22.2896 C   0  0  0  0  0  0  0  0  0  0  0  0
    3.2629   12.9232   23.4612 C   0  0  0  0  0  0  0  0  0  0  0  0
    5.4906   13.6523   22.5174 C   0  0  0  0  0  0  0  0  0  0  0  0
    4.7803   12.8953   23.6304 C   0  0  0  0  0  0  0  0  0  0  0  0
    2.3803   18.5218   20.7570 C   0  0  0  0  0  0  0  0  0  0  0  0
    3.3237   19.3097   20.9209 O   0  0  0  0  0  0  0  0  0  0  0  0
    1.1931   18.9068   19.9627 C   0  0  1  0  0  0  0  0  0  0  0  0
    0.4858   20.0918   20.5368 C   0  0  1  0  0  0  0  0  0  0  0  0
   -0.6106   20.4696   19.5300 C   0  0  0  0  0  0  0  0  0  0  0  0
   -1.5251   19.3210   19.1009 C   0  0  0  0  0  0  0  0  0  0  0  0
   -1.4459   21.6453   19.9763 C   0  0  0  0  0  0  0  0  0  0  0  0
    1.7023   19.1358   18.6347 O   0  0  0  0  0  0  0  0  0  0  0  0
   -0.1082   19.7688   21.9244 C   0  0  0  0  0  0  0  0  0  0  0  0
   -0.2959   18.6769   22.3729 O   0  0  0  0  0  0  0  0  0  0  0  0
   -0.4051   20.9352   22.5699 N   0  0  0  0  0  0  0  0  0  0  0  0
   -1.1071   21.1117   23.8199 C   0  0  2  0  0  0  0  0  0  0  0  0
   -1.6540   22.5722   23.6972 C   0  0  0  0  0  0  0  0  0  0  0  0
   -1.1131   23.5784   24.0803 O   0  0  0  0  0  0  0  0  0  0  0  0
   -0.4282   20.7046   25.1305 C   0  0  2  0  0  0  0  0  0  0  0  0
   -0.8883   21.6065   26.2902 C   0  0  0  0  0  0  0  0  0  0  0  0
    1.0917   20.5191   25.1138 C   0  0  0  0  0  0  0  0  0  0  0  0
   -2.4082   21.7304   26.3971 C   0  0  0  0  0  0  0  0  0  0  0  0
   -2.8493   22.5672   23.0445 N   0  0  0  0  0  0  0  0  0  0  0  0
   -3.6834   23.7086   22.7576 C   0  0  0  0  0  0  0  0  0  0  0  0
   -5.0861   23.2689   22.3750 C   0  0  0  0  0  0  0  0  0  0  0  0
   -5.4888   21.9365   22.4896 C   0  0  0  0  0  0  0  0  0  0  0  0
   -6.7900   21.5955   22.1587 C   0  0  0  0  0  0  0  0  0  0  0  0
   -7.6618   22.5810   21.7135 C   0  0  0  0  0  0  0  0  0  0  0  0
   -7.1986   23.8772   21.6288 C   0  0  0  0  0  0  0  0  0  0  0  0
   -5.9328   24.2400   21.9447 N   0  0  0  0  0  0  0  0  0  0  0  0
    5.3560   11.1815   17.8041 H   0  0  0  0  0  0  0  0  0  0  0  0
    3.6228   11.0758   18.2147 H   0  0  0  0  0  0  0  0  0  0  0  0
    7.1980   11.0985   20.7251 H   0  0  0  0  0  0  0  0  0  0  0  0
    7.7202    9.1679   22.2010 H   0  0  0  0  0  0  0  0  0  0  0  0
    5.9299    7.5949   22.8697 H   0  0  0  0  0  0  0  0  0  0  0  0
    3.6049    6.9037   22.8086 H   0  0  0  0  0  0  0  0  0  0  0  0
    1.2851    7.2436   21.9881 H   0  0  0  0  0  0  0  0  0  0  0  0
    0.7602    9.1757   20.5126 H   0  0  0  0  0  0  0  0  0  0  0  0
    2.5263   10.7676   19.8885 H   0  0  0  0  0  0  0  0  0  0  0  0
    2.5238   13.0748   18.7984 H   0  0  0  0  0  0  0  0  0  0  0  0
    3.5394   15.5705   17.4577 H   0  0  0  0  0  0  0  0  0  0  0  0
    1.3595   15.8033   16.3053 H   0  0  0  0  0  0  0  0  0  0  0  0
    0.7272   14.3453   17.0870 H   0  0  0  0  0  0  0  0  0  0  0  0
    2.0023   12.0270   16.4213 H   0  0  0  0  0  0  0  0  0  0  0  0
    2.8088   15.3210   13.9816 H   0  0  0  0  0  0  0  0  0  0  0  0
    3.1332   11.1354   14.3239 H   0  0  0  0  0  0  0  0  0  0  0  0
    3.8289   16.5651   19.4332 H   0  0  0  0  0  0  0  0  0  0  0  0
    1.3370   16.7256   21.0763 H   0  0  0  0  0  0  0  0  0  0  0  0
    2.2328   16.7218   23.0118 H   0  0  0  0  0  0  0  0  0  0  0  0
    3.8603   17.1753   22.4385 H   0  0  0  0  0  0  0  0  0  0  0  0
    3.0369   14.5563   21.3423 H   0  0  0  0  0  0  0  0  0  0  0  0
    1.7045   14.4368   23.4553 H   0  0  0  0  0  0  0  0  0  0  0  0
    3.1496   14.8766   24.3832 H   0  0  0  0  0  0  0  0  0  0  0  0
    5.2684   15.6855   23.1107 H   0  0  0  0  0  0  0  0  0  0  0  0
    5.3311   15.4427   21.3528 H   0  0  0  0  0  0  0  0  0  0  0  0
    2.9820   12.4481   22.5106 H   0  0  0  0  0  0  0  0  0  0  0  0
    2.7820   12.3612   24.2698 H   0  0  0  0  0  0  0  0  0  0  0  0
    5.3959   13.0946   21.5897 H   0  0  0  0  0  0  0  0  0  0  0  0
    6.5580   13.7380   22.7546 H   0  0  0  0  0  0  0  0  0  0  0  0
    5.1401   11.8624   23.6419 H   0  0  0  0  0  0  0  0  0  0  0  0
    5.0430   13.3608   24.5893 H   0  0  0  0  0  0  0  0  0  0  0  0
    0.5042   18.0606   19.9059 H   0  0  0  0  0  0  0  0  0  0  0  0
    1.1870   20.9399   20.6282 H   0  0  0  0  0  0  0  0  0  0  0  0
   -0.0667   20.7828   18.6362 H   0  0  0  0  0  0  0  0  0  0  0  0
   -2.2656   19.6983   18.3909 H   0  0  0  0  0  0  0  0  0  0  0  0
   -2.0478   18.8773   19.9550 H   0  0  0  0  0  0  0  0  0  0  0  0
   -0.9598   18.5332   18.5892 H   0  0  0  0  0  0  0  0  0  0  0  0
   -0.7998   22.4610   20.3095 H   0  0  0  0  0  0  0  0  0  0  0  0
   -2.1158   21.3518   20.7881 H   0  0  0  0  0  0  0  0  0  0  0  0
   -2.0466   21.9905   19.1411 H   0  0  0  0  0  0  0  0  0  0  0  0
    2.3435   19.8692   18.6797 H   0  0  0  0  0  0  0  0  0  0  0  0
   -0.1780   21.7794   22.0750 H   0  0  0  0  0  0  0  0  0  0  0  0
   -1.9850   20.4585   23.7836 H   0  0  0  0  0  0  0  0  0  0  0  0
   -0.8121   19.6969   25.3430 H   0  0  0  0  0  0  0  0  0  0  0  0
   -0.4596   22.6071   26.1580 H   0  0  0  0  0  0  0  0  0  0  0  0
   -0.5113   21.2032   27.2327 H   0  0  0  0  0  0  0  0  0  0  0  0
    1.4013   19.8568   24.2955 H   0  0  0  0  0  0  0  0  0  0  0  0
    1.4231   20.0460   26.0531 H   0  0  0  0  0  0  0  0  0  0  0  0
    1.6101   21.4743   25.0114 H   0  0  0  0  0  0  0  0  0  0  0  0
   -2.6909   22.3929   27.2188 H   0  0  0  0  0  0  0  0  0  0  0  0
   -2.8723   20.7529   26.5449 H   0  0  0  0  0  0  0  0  0  0  0  0
   -2.8522   22.1585   25.5025 H   0  0  0  0  0  0  0  0  0  0  0  0
   -3.1618   21.6603   22.7606 H   0  0  0  0  0  0  0  0  0  0  0  0
   -3.2269   24.2511   21.9214 H   0  0  0  0  0  0  0  0  0  0  0  0
   -3.7270   24.3641   23.6334 H   0  0  0  0  0  0  0  0  0  0  0  0
   -4.8240   21.1587   22.8347 H   0  0  0  0  0  0  0  0  0  0  0  0
   -7.1191   20.5666   22.2535 H   0  0  0  0  0  0  0  0  0  0  0  0
   -8.6809   22.3392   21.4374 H   0  0  0  0  0  0  0  0  0  0  0  0
   -7.8514   24.6884   21.2995 H   0  0  0  0  0  0  0  0  0  0  0  0
  1 13  2  0  0  0  0
  1  2  1  0  0  0  0
  1 15  1  0  0  0  0
  2 14  1  0  0  0  0
  2 60  1  0  0  0  0
  2 61  1  0  0  0  0
  3 14  1  0  0  0  0
  3 12  2  0  0  0  0
  3  4  1  0  0  0  0
  4  5  2  0  0  0  0
  4 62  1  0  0  0  0
  5  6  1  0  0  0  0
  5 63  1  0  0  0  0
  6  7  2  0  0  0  0
  6 64  1  0  0  0  0
  7 12  1  0  0  0  0
  7  8  1  0  0  0  0
  8  9  2  0  0  0  0
  8 65  1  0  0  0  0
  9 10  1  0  0  0  0
  9 66  1  0  0  0  0
 10 11  2  0  0  0  0
 10 67  1  0  0  0  0
 11 12  1  0  0  0  0
 11 68  1  0  0  0  0
 15 16  1  0  0  0  0
 15 69  1  0  0  0  0
 16 17  1  0  0  0  0
 16 19  1  0  0  0  0
 16 70  1  6  0  0  0
 17 18  2  0  0  0  0
 17 25  1  0  0  0  0
 19 20  1  0  0  0  0
 19 71  1  0  0  0  0
 19 72  1  0  0  0  0
 20 22  2  0  0  0  0
 20 21  1  0  0  0  0
 21 23  2  0  0  0  0
 21 73  1  0  0  0  0
 22 24  1  0  0  0  0
 22 74  1  0  0  0  0
 23 24  1  0  0  0  0
 23 75  1  0  0  0  0
 25 26  1  0  0  0  0
 25 76  1  0  0  0  0
 26 34  1  0  0  0  0
 26 27  1  0  0  0  0
 26 77  1  1  0  0  0
 27 28  1  0  0  0  0
 27 78  1  0  0  0  0
 27 79  1  0  0  0  0
 28 30  1  0  0  0  0
 28 29  1  0  0  0  0
 28 80  1  0  0  0  0
 29 31  1  0  0  0  0
 29 81  1  0  0  0  0
 29 82  1  0  0  0  0
 30 32  1  0  0  0  0
 30 83  1  0  0  0  0
 30 84  1  0  0  0  0
 31 33  1  0  0  0  0
 31 85  1  0  0  0  0
 31 86  1  0  0  0  0
 32 33  1  0  0  0  0
 32 87  1  0  0  0  0
 32 88  1  0  0  0  0
 33 89  1  0  0  0  0
 33 90  1  0  0  0  0
 34 36  1  0  0  0  0
 34 35  2  0  0  0  0
 36 41  1  0  0  0  0
 36 37  1  0  0  0  0
 36 91  1  6  0  0  0
 37 42  1  0  0  0  0
 37 38  1  0  0  0  0
 37 92  1  1  0  0  0
 38 40  1  0  0  0  0
 38 39  1  0  0  0  0
 38 93  1  0  0  0  0
 39 94  1  0  0  0  0
 39 95  1  0  0  0  0
 39 96  1  0  0  0  0
 40 97  1  0  0  0  0
 40 98  1  0  0  0  0
 40 99  1  0  0  0  0
 41100  1  0  0  0  0
 42 43  2  0  0  0  0
 42 44  1  0  0  0  0
 44 45  1  0  0  0  0
 44101  1  0  0  0  0
 45 46  1  0  0  0  0
 45 48  1  0  0  0  0
 45102  1  6  0  0  0
 46 47  2  0  0  0  0
 46 52  1  0  0  0  0
 48 49  1  0  0  0  0
 48 50  1  0  0  0  0
 48103  1  1  0  0  0
 49 51  1  0  0  0  0
 49104  1  0  0  0  0
 49105  1  0  0  0  0
 50106  1  0  0  0  0
 50107  1  0  0  0  0
 50108  1  0  0  0  0
 51109  1  0  0  0  0
 51110  1  0  0  0  0
 51111  1  0  0  0  0
 52 53  1  0  0  0  0
 52112  1  0  0  0  0
 53 54  1  0  0  0  0
 53113  1  0  0  0  0
 53114  1  0  0  0  0
 54 59  2  0  0  0  0
 54 55  1  0  0  0  0
 55 56  2  0  0  0  0
 55115  1  0  0  0  0
 56 57  1  0  0  0  0
 56116  1  0  0  0  0
 57 58  2  0  0  0  0
 57117  1  0  0  0  0
 58 59  1  0  0  0  0
 58118  1  0  0  0  0
M  CHG  1  21   1
M  END
$$$$
