239
 OpenBabel04041916163D

 44 46  0  0  0  0  0  0  0  0999 V2000
   17.0526   19.5568   33.8245 N   0  0  0  0  0  0  0  0  0  0  0  0
   18.3581   19.7575   33.9946 C   0  0  0  0  0  0  0  0  0  0  0  0
   18.8721   20.9153   34.4170 N   0  0  0  0  0  0  0  0  0  0  0  0
   19.2777   18.6331   33.6355 C   0  0  0  0  0  0  0  0  0  0  0  0
   20.5539   18.5535   34.1989 C   0  0  0  0  0  0  0  0  0  0  0  0
   21.4527   17.5371   33.8465 C   0  0  0  0  0  0  0  0  0  0  0  0
   22.6845   17.4387   34.4894 C   0  0  0  0  0  0  0  0  0  0  0  0
   23.5434   16.3869   34.1595 C   0  0  0  0  0  0  0  0  0  0  0  0
   23.2669   15.4819   33.1212 C   0  0  0  0  0  0  0  0  0  0  0  0
   22.0212   15.5739   32.5142 C   0  0  0  0  0  0  0  0  0  0  0  0
   21.0922   16.5720   32.8705 C   0  0  0  0  0  0  0  0  0  0  0  0
   19.8193   16.6159   32.2984 C   0  0  0  0  0  0  0  0  0  0  0  0
   18.9259   17.6284   32.6967 C   0  0  0  0  0  0  0  0  0  0  0  0
   24.3236   14.4789   32.7198 C   0  0  0  0  0  0  0  0  0  0  0  0
   25.0982   14.0966   33.5497 O   0  0  0  0  0  0  0  0  0  0  0  0
   24.4129   14.1601   31.3603 N   0  0  0  0  0  0  0  0  0  0  0  0
   25.3881   13.3402   30.7481 C   0  0  0  0  0  0  0  0  0  0  0  0
   25.9848   12.2514   31.4006 C   0  0  0  0  0  0  0  0  0  0  0  0
   26.9347   11.4908   30.7167 C   0  0  0  0  0  0  0  0  0  0  0  0
   27.2071   11.7715   29.3613 C   0  0  0  0  0  0  0  0  0  0  0  0
   26.5580   12.8169   28.6862 C   0  0  0  0  0  0  0  0  0  0  0  0
   25.7006   13.6419   29.4095 C   0  0  0  0  0  0  0  0  0  0  0  0
   28.2305   10.9605   28.6450 C   0  0  0  0  0  0  0  0  0  0  0  0
   29.5949   11.4193   28.9494 N   0  3  0  0  0  0  0  0  0  0  0  0
   16.7252   18.6656   33.4700 H   0  0  0  0  0  0  0  0  0  0  0  0
   19.8752   21.0229   34.5298 H   0  0  0  0  0  0  0  0  0  0  0  0
   18.3185   21.7487   34.5948 H   0  0  0  0  0  0  0  0  0  0  0  0
   20.8873   19.2687   34.9474 H   0  0  0  0  0  0  0  0  0  0  0  0
   22.9826   18.1526   35.2682 H   0  0  0  0  0  0  0  0  0  0  0  0
   24.4594   16.2638   34.7183 H   0  0  0  0  0  0  0  0  0  0  0  0
   21.7390   14.8478   31.7620 H   0  0  0  0  0  0  0  0  0  0  0  0
   19.5108   15.8579   31.5584 H   0  0  0  0  0  0  0  0  0  0  0  0
   17.9490   17.6280   32.2335 H   0  0  0  0  0  0  0  0  0  0  0  0
   23.7812   14.6224   30.7323 H   0  0  0  0  0  0  0  0  0  0  0  0
   25.7090   12.0020   32.4271 H   0  0  0  0  0  0  0  0  0  0  0  0
   27.4551   10.6761   31.2252 H   0  0  0  0  0  0  0  0  0  0  0  0
   26.7093   12.9846   27.6166 H   0  0  0  0  0  0  0  0  0  0  0  0
   25.2992   14.5482   28.9535 H   0  0  0  0  0  0  0  0  0  0  0  0
   28.1063   11.0431   27.5651 H   0  0  0  0  0  0  0  0  0  0  0  0
   28.1724    9.9167   28.9510 H   0  0  0  0  0  0  0  0  0  0  0  0
   30.2900   10.8498   28.4528 H   0  0  0  0  0  0  0  0  0  0  0  0
   29.7176   12.4023   28.6707 H   0  0  0  0  0  0  0  0  0  0  0  0
   16.3402   20.2471   34.0336 H   0  0  0  0  0  0  0  0  0  0  0  0
   29.7821   11.3533   29.9596 H   0  0  0  0  0  0  0  0  0  0  0  0
  1  2  2  0  0  0  0
  1 25  1  0  0  0  0
  1 43  1  0  0  0  0
  2  3  1  0  0  0  0
  2  4  1  0  0  0  0
  3 26  1  0  0  0  0
  3 27  1  0  0  0  0
  4  5  2  0  0  0  0
  4 13  1  0  0  0  0
  5  6  1  0  0  0  0
  5 28  1  0  0  0  0
  6  7  2  0  0  0  0
  6 11  1  0  0  0  0
  7  8  1  0  0  0  0
  7 29  1  0  0  0  0
  8  9  2  0  0  0  0
  8 30  1  0  0  0  0
  9 10  1  0  0  0  0
  9 14  1  0  0  0  0
 10 11  2  0  0  0  0
 10 31  1  0  0  0  0
 11 12  1  0  0  0  0
 12 13  2  0  0  0  0
 12 32  1  0  0  0  0
 13 33  1  0  0  0  0
 14 15  2  0  0  0  0
 14 16  1  0  0  0  0
 16 17  1  0  0  0  0
 16 34  1  0  0  0  0
 17 18  2  0  0  0  0
 17 22  1  0  0  0  0
 18 19  1  0  0  0  0
 18 35  1  0  0  0  0
 19 20  2  0  0  0  0
 19 36  1  0  0  0  0
 20 21  1  0  0  0  0
 20 23  1  0  0  0  0
 21 22  2  0  0  0  0
 21 37  1  0  0  0  0
 22 38  1  0  0  0  0
 23 24  1  0  0  0  0
 23 39  1  0  0  0  0
 23 40  1  0  0  0  0
 24 41  1  0  0  0  0
 24 42  1  0  0  0  0
 24 44  1  0  0  0  0
M  CHG  1  24   1
M  END
$$$$
