2Z3
 OpenBabel04041914293D

 95 97  0  0  1  0  0  0  0  0999 V2000
   30.8988   -7.3634   -7.5804 O   0  0  0  0  0  0  0  0  0  0  0  0
   30.7163   -6.5759   -6.4036 C   0  0  0  0  0  0  0  0  0  0  0  0
   32.0303   -6.2828   -5.7309 C   0  0  0  0  0  0  0  0  0  0  0  0
   32.8699   -7.4635   -5.5765 N   0  0  0  0  0  0  0  0  0  0  0  0
   32.8694   -8.4447   -6.6637 C   0  0  0  0  0  0  0  0  0  0  0  0
   31.4598   -8.6324   -7.2038 C   0  0  0  0  0  0  0  0  0  0  0  0
   33.7024   -7.6600   -4.5067 C   0  0  0  0  0  0  0  0  0  0  0  0
   34.4327   -8.6409   -4.4089 O   0  0  0  0  0  0  0  0  0  0  0  0
   33.6360   -6.7174   -3.5364 N   0  0  0  0  0  0  0  0  0  0  0  0
   34.4109   -6.8080   -2.3125 C   0  0  2  0  0  0  0  0  0  0  0  0
   33.8930   -7.9043   -1.4156 C   0  0  0  0  0  0  0  0  0  0  0  0
   32.6736   -8.1430   -1.3141 O   0  0  0  0  0  0  0  0  0  0  0  0
   34.2507   -5.4767   -1.5489 C   0  0  0  0  0  0  0  0  0  0  0  0
   35.0182   -4.3882   -2.2533 C   0  0  0  0  0  0  0  0  0  0  0  0
   36.4080   -4.5382   -2.4240 C   0  0  0  0  0  0  0  0  0  0  0  0
   34.3810   -3.2740   -2.7952 C   0  0  0  0  0  0  0  0  0  0  0  0
   37.1522   -3.5881   -3.1081 C   0  0  0  0  0  0  0  0  0  0  0  0
   35.1321   -2.3216   -3.4828 C   0  0  0  0  0  0  0  0  0  0  0  0
   36.5092   -2.4736   -3.6359 C   0  0  0  0  0  0  0  0  0  0  0  0
   34.8073   -8.5015   -0.5997 N   0  0  0  0  0  0  0  0  0  0  0  0
   34.4572   -9.6289    0.2758 C   0  0  2  0  0  0  0  0  0  0  0  0
   35.5282   -9.6653    1.3642 C   0  0  0  0  0  0  0  0  0  0  0  0
   36.6414  -10.1242    1.1654 O   0  0  0  0  0  0  0  0  0  0  0  0
   34.4954  -10.9582   -0.4890 C   0  0  0  0  0  0  0  0  0  0  0  0
   34.2040  -12.1440    0.4380 C   0  0  0  0  0  0  0  0  0  0  0  0
   33.4539  -13.3130   -0.1858 C   0  0  0  0  0  0  0  0  0  0  0  0
   34.0453  -13.8211   -1.4800 C   0  0  0  0  0  0  0  0  0  0  0  0
   35.2061   -8.9741    2.5114 N   0  0  0  0  0  0  0  0  0  0  0  0
   36.2033   -8.8063    3.5719 C   0  0  1  0  0  0  0  0  0  0  0  0
   36.6514   -7.3279    3.6531 C   0  0  0  0  0  0  0  0  0  0  0  0
   36.9209   -6.6179    2.3119 C   0  0  0  0  0  0  0  0  0  0  0  0
   38.2450   -7.0545    1.6961 C   0  0  0  0  0  0  0  0  0  0  0  0
   36.8164   -5.1037    2.4892 C   0  0  0  0  0  0  0  0  0  0  0  0
   38.6704   -6.2620    0.4683 C   0  0  0  0  0  0  0  0  0  0  0  0
   37.2841   -4.3211    1.2724 C   0  0  0  0  0  0  0  0  0  0  0  0
   38.6222   -4.7662    0.7208 C   0  0  0  0  0  0  0  0  0  0  0  0
   35.6718   -9.3311    4.9482 C   0  0  0  0  0  0  0  0  0  0  0  0
   34.3712   -8.7704    5.2313 O   0  0  0  0  0  0  0  0  0  0  0  0
   36.5032   -8.9016    6.0306 O   0  0  0  0  0  0  0  0  0  0  0  0
   35.5719  -10.8908    4.9419 C   0  0  0  0  0  0  0  0  0  0  0  0
   35.0485  -11.3413    3.7745 F   0  0  0  0  0  0  0  0  0  0  0  0
   34.6714  -11.2745    5.9152 F   0  0  0  0  0  0  0  0  0  0  0  0
   36.9284  -11.5250    5.2505 C   0  0  0  0  0  0  0  0  0  0  0  0
   37.7581  -11.7701    4.3345 O   0  0  0  0  0  0  0  0  0  0  0  0
   37.2224  -11.8038    6.5579 N   0  0  0  0  0  0  0  0  0  0  0  0
   38.4990  -12.4175    6.8367 C   0  0  0  0  0  0  0  0  0  0  0  0
   30.0644   -7.1108   -5.7006 H   0  0  0  0  0  0  0  0  0  0  0  0
   30.2523   -5.6172   -6.6504 H   0  0  0  0  0  0  0  0  0  0  0  0
   31.7510   -5.8838   -4.7529 H   0  0  0  0  0  0  0  0  0  0  0  0
   32.5974   -5.5265   -6.2790 H   0  0  0  0  0  0  0  0  0  0  0  0
   33.2463   -9.4124   -6.3089 H   0  0  0  0  0  0  0  0  0  0  0  0
   33.5309   -8.0953   -7.4646 H   0  0  0  0  0  0  0  0  0  0  0  0
   31.4698   -9.2913   -8.0771 H   0  0  0  0  0  0  0  0  0  0  0  0
   30.8273   -9.0916   -6.4329 H   0  0  0  0  0  0  0  0  0  0  0  0
   33.0867   -5.8945   -3.6477 H   0  0  0  0  0  0  0  0  0  0  0  0
   35.4560   -7.0131   -2.5799 H   0  0  0  0  0  0  0  0  0  0  0  0
   34.5897   -5.5565   -0.5108 H   0  0  0  0  0  0  0  0  0  0  0  0
   33.1846   -5.1929   -1.4965 H   0  0  0  0  0  0  0  0  0  0  0  0
   36.9054   -5.4196   -2.0388 H   0  0  0  0  0  0  0  0  0  0  0  0
   33.3072   -3.1407   -2.7043 H   0  0  0  0  0  0  0  0  0  0  0  0
   38.2241   -3.7251   -3.2239 H   0  0  0  0  0  0  0  0  0  0  0  0
   34.6411   -1.4488   -3.9043 H   0  0  0  0  0  0  0  0  0  0  0  0
   37.0765   -1.7160   -4.1723 H   0  0  0  0  0  0  0  0  0  0  0  0
   35.8051   -8.3052   -0.7238 H   0  0  0  0  0  0  0  0  0  0  0  0
   33.4595   -9.4532    0.6989 H   0  0  0  0  0  0  0  0  0  0  0  0
   35.4986  -11.0905   -0.9167 H   0  0  0  0  0  0  0  0  0  0  0  0
   33.7865  -10.9248   -1.3221 H   0  0  0  0  0  0  0  0  0  0  0  0
   33.6037  -11.8027    1.2881 H   0  0  0  0  0  0  0  0  0  0  0  0
   35.1578  -12.5197    0.8301 H   0  0  0  0  0  0  0  0  0  0  0  0
   32.4139  -13.0208   -0.3647 H   0  0  0  0  0  0  0  0  0  0  0  0
   33.4489  -14.1365    0.5377 H   0  0  0  0  0  0  0  0  0  0  0  0
   33.4520  -14.6670   -1.8408 H   0  0  0  0  0  0  0  0  0  0  0  0
   35.0758  -14.1548   -1.3287 H   0  0  0  0  0  0  0  0  0  0  0  0
   34.0281  -13.0423   -2.2463 H   0  0  0  0  0  0  0  0  0  0  0  0
   34.2307   -8.7429    2.6835 H   0  0  0  0  0  0  0  0  0  0  0  0
   37.1100   -9.3692    3.3240 H   0  0  0  0  0  0  0  0  0  0  0  0
   37.5674   -7.2967    4.2617 H   0  0  0  0  0  0  0  0  0  0  0  0
   35.8819   -6.7598    4.1841 H   0  0  0  0  0  0  0  0  0  0  0  0
   36.1266   -6.8905    1.6128 H   0  0  0  0  0  0  0  0  0  0  0  0
   38.1446   -8.1001    1.4022 H   0  0  0  0  0  0  0  0  0  0  0  0
   39.0456   -6.9770    2.4409 H   0  0  0  0  0  0  0  0  0  0  0  0
   37.3691   -4.7685    3.3767 H   0  0  0  0  0  0  0  0  0  0  0  0
   35.7584   -4.8618    2.6564 H   0  0  0  0  0  0  0  0  0  0  0  0
   38.0337   -6.5236   -0.3847 H   0  0  0  0  0  0  0  0  0  0  0  0
   39.6934   -6.5512    0.1994 H   0  0  0  0  0  0  0  0  0  0  0  0
   37.3538   -3.2630    1.5403 H   0  0  0  0  0  0  0  0  0  0  0  0
   36.5347   -4.4216    0.4832 H   0  0  0  0  0  0  0  0  0  0  0  0
   38.8107   -4.2260   -0.2133 H   0  0  0  0  0  0  0  0  0  0  0  0
   39.4123   -4.4888    1.4292 H   0  0  0  0  0  0  0  0  0  0  0  0
   34.4395   -7.8058    5.2856 H   0  0  0  0  0  0  0  0  0  0  0  0
   36.5504   -7.9316    6.0041 H   0  0  0  0  0  0  0  0  0  0  0  0
   36.5472  -11.6178    7.2830 H   0  0  0  0  0  0  0  0  0  0  0  0
   38.5949  -12.6268    7.9081 H   0  0  0  0  0  0  0  0  0  0  0  0
   39.2947  -11.7414    6.5117 H   0  0  0  0  0  0  0  0  0  0  0  0
   38.5777  -13.3461    6.2639 H   0  0  0  0  0  0  0  0  0  0  0  0
  1  2  1  0  0  0  0
  1  6  1  0  0  0  0
  2  3  1  0  0  0  0
  2 47  1  0  0  0  0
  2 48  1  0  0  0  0
  3  4  1  0  0  0  0
  3 49  1  0  0  0  0
  3 50  1  0  0  0  0
  4  5  1  0  0  0  0
  4  7  1  0  0  0  0
  5  6  1  0  0  0  0
  5 51  1  0  0  0  0
  5 52  1  0  0  0  0
  6 53  1  0  0  0  0
  6 54  1  0  0  0  0
  7  8  2  0  0  0  0
  7  9  1  0  0  0  0
  9 10  1  0  0  0  0
  9 55  1  0  0  0  0
 10 13  1  0  0  0  0
 10 11  1  0  0  0  0
 10 56  1  6  0  0  0
 11 12  2  0  0  0  0
 11 20  1  0  0  0  0
 13 14  1  0  0  0  0
 13 57  1  0  0  0  0
 13 58  1  0  0  0  0
 14 15  2  0  0  0  0
 14 16  1  0  0  0  0
 15 17  1  0  0  0  0
 15 59  1  0  0  0  0
 16 18  2  0  0  0  0
 16 60  1  0  0  0  0
 17 19  2  0  0  0  0
 17 61  1  0  0  0  0
 18 19  1  0  0  0  0
 18 62  1  0  0  0  0
 19 63  1  0  0  0  0
 20 21  1  0  0  0  0
 20 64  1  0  0  0  0
 21 22  1  0  0  0  0
 21 24  1  0  0  0  0
 21 65  1  1  0  0  0
 22 23  2  0  0  0  0
 22 28  1  0  0  0  0
 24 25  1  0  0  0  0
 24 66  1  0  0  0  0
 24 67  1  0  0  0  0
 25 26  1  0  0  0  0
 25 68  1  0  0  0  0
 25 69  1  0  0  0  0
 26 27  1  0  0  0  0
 26 70  1  0  0  0  0
 26 71  1  0  0  0  0
 27 72  1  0  0  0  0
 27 73  1  0  0  0  0
 27 74  1  0  0  0  0
 28 29  1  0  0  0  0
 28 75  1  0  0  0  0
 29 30  1  0  0  0  0
 29 37  1  0  0  0  0
 29 76  1  6  0  0  0
 30 31  1  0  0  0  0
 30 77  1  0  0  0  0
 30 78  1  0  0  0  0
 31 32  1  0  0  0  0
 31 33  1  0  0  0  0
 31 79  1  0  0  0  0
 32 34  1  0  0  0  0
 32 80  1  0  0  0  0
 32 81  1  0  0  0  0
 33 35  1  0  0  0  0
 33 82  1  0  0  0  0
 33 83  1  0  0  0  0
 34 36  1  0  0  0  0
 34 84  1  0  0  0  0
 34 85  1  0  0  0  0
 35 36  1  0  0  0  0
 35 86  1  0  0  0  0
 35 87  1  0  0  0  0
 36 88  1  0  0  0  0
 36 89  1  0  0  0  0
 37 38  1  0  0  0  0
 37 39  1  0  0  0  0
 37 40  1  0  0  0  0
 38 90  1  0  0  0  0
 39 91  1  0  0  0  0
 40 41  1  0  0  0  0
 40 42  1  0  0  0  0
 40 43  1  0  0  0  0
 43 44  2  0  0  0  0
 43 45  1  0  0  0  0
 45 46  1  0  0  0  0
 45 92  1  0  0  0  0
 46 93  1  0  0  0  0
 46 94  1  0  0  0  0
 46 95  1  0  0  0  0
M  END
$$$$
