312
 OpenBabel04041916033D

 56 59  0  0  1  0  0  0  0  0999 V2000
   44.2794   -3.0231   25.9130 C   0  0  0  0  0  0  0  0  0  0  0  0
   44.5928   -1.6401   25.9484 C   0  0  0  0  0  0  0  0  0  0  0  0
   44.5311   -0.8711   27.1159 C   0  0  0  0  0  0  0  0  0  0  0  0
   44.1176   -1.5515   28.2462 C   0  0  0  0  0  0  0  0  0  0  0  0
   43.8125   -2.8956   28.2809 C   0  0  0  0  0  0  0  0  0  0  0  0
   43.8906   -3.6481   27.1147 C   0  0  0  0  0  0  0  0  0  0  0  0
   44.3544   -3.8034   24.6664 C   0  0  0  0  0  0  0  0  0  0  0  0
   43.8962   -5.0385   24.6127 N   0  0  0  0  0  0  0  0  0  0  0  0
   44.8792   -3.2696   23.5812 N   0  0  0  0  0  0  0  0  0  0  0  0
   43.9032   -1.1454   29.5281 N   0  3  0  0  0  0  0  0  0  0  0  0
   43.4582   -3.3072   29.5242 N   0  0  0  0  0  0  0  0  0  0  0  0
   43.5099   -2.2327   30.2798 C   0  0  0  0  0  0  0  0  0  0  0  0
   43.2251   -2.1150   31.7028 C   0  0  0  0  0  0  0  0  0  0  0  0
   42.8894   -3.2626   32.4306 C   0  0  0  0  0  0  0  0  0  0  0  0
   42.6176   -3.2002   33.8054 C   0  0  0  0  0  0  0  0  0  0  0  0
   42.2206   -4.4705   34.5758 C   0  0  2  0  0  0  0  0  0  0  0  0
   40.7649   -4.7839   34.0998 C   0  0  0  0  0  0  0  0  0  0  0  0
   40.6751   -5.5426   33.0806 O   0  0  0  0  0  0  0  0  0  0  0  0
   39.8226   -4.1712   34.6893 O   0  0  0  0  0  0  0  0  0  0  0  0
   42.3911   -4.3724   36.1146 C   0  0  0  0  0  0  0  0  0  0  0  0
   43.2245   -5.4569   36.7907 C   0  0  0  0  0  0  0  0  0  0  0  0
   43.0584   -6.6465   36.4123 O   0  0  0  0  0  0  0  0  0  0  0  0
   44.0070   -5.0280   37.6978 O   0  0  0  0  0  0  0  0  0  0  0  0
   42.6680   -1.9458   34.4213 C   0  0  0  0  0  0  0  0  0  0  0  0
   43.0532   -0.7844   33.7427 C   0  0  0  0  0  0  0  0  0  0  0  0
   43.3258   -0.8825   32.3741 C   0  0  0  0  0  0  0  0  0  0  0  0
   43.7372    0.2283   31.6572 O   0  0  0  0  0  0  0  0  0  0  0  0
   43.2467    0.4390   34.5309 C   0  0  0  0  0  0  0  0  0  0  0  0
   42.1981    1.0771   35.2268 C   0  0  0  0  0  0  0  0  0  0  0  0
   42.4889    2.1736   36.0395 C   0  0  0  0  0  0  0  0  0  0  0  0
   43.7976    2.6540   36.1452 C   0  0  0  0  0  0  0  0  0  0  0  0
   44.8327    2.0329   35.4600 C   0  0  0  0  0  0  0  0  0  0  0  0
   44.5612    0.9226   34.6734 C   0  0  0  0  0  0  0  0  0  0  0  0
   40.9489    0.5256   35.1050 O   0  0  0  0  0  0  0  0  0  0  0  0
   39.8312    1.3179   35.4729 C   0  0  0  0  0  0  0  0  0  0  0  0
   44.8920   -1.0952   25.0601 H   0  0  0  0  0  0  0  0  0  0  0  0
   44.7748    0.1845   27.1357 H   0  0  0  0  0  0  0  0  0  0  0  0
   43.6382   -4.6957   27.2187 H   0  0  0  0  0  0  0  0  0  0  0  0
   43.9398   -5.6048   23.7814 H   0  0  0  0  0  0  0  0  0  0  0  0
   45.2618   -2.3347   23.5874 H   0  0  0  0  0  0  0  0  0  0  0  0
   44.9327   -3.7811   22.7088 H   0  0  0  0  0  0  0  0  0  0  0  0
   43.9962   -0.2162   29.9147 H   0  0  0  0  0  0  0  0  0  0  0  0
   42.8074   -4.2270   31.9252 H   0  0  0  0  0  0  0  0  0  0  0  0
   42.8752   -5.2752   34.2127 H   0  0  0  0  0  0  0  0  0  0  0  0
   41.4108   -4.3682   36.6139 H   0  0  0  0  0  0  0  0  0  0  0  0
   42.8857   -3.4521   36.4277 H   0  0  0  0  0  0  0  0  0  0  0  0
   42.4060   -1.8488   35.4699 H   0  0  0  0  0  0  0  0  0  0  0  0
   44.2268    0.7880   32.2813 H   0  0  0  0  0  0  0  0  0  0  0  0
   41.7223    2.6477   36.6409 H   0  0  0  0  0  0  0  0  0  0  0  0
   44.0100    3.4938   36.7992 H   0  0  0  0  0  0  0  0  0  0  0  0
   45.8575    2.3767   35.5698 H   0  0  0  0  0  0  0  0  0  0  0  0
   45.3839    0.3885   34.2008 H   0  0  0  0  0  0  0  0  0  0  0  0
   38.9244    0.7231   35.3233 H   0  0  0  0  0  0  0  0  0  0  0  0
   39.7668    2.1992   34.8269 H   0  0  0  0  0  0  0  0  0  0  0  0
   39.8543    1.6055   36.5285 H   0  0  0  0  0  0  0  0  0  0  0  0
   43.4783   -5.4836   25.4250 H   0  0  0  0  0  0  0  0  0  0  0  0
  1  2  2  0  0  0  0
  1  6  1  0  0  0  0
  1  7  1  0  0  0  0
  2  3  1  0  0  0  0
  2 36  1  0  0  0  0
  3  4  2  0  0  0  0
  3 37  1  0  0  0  0
  4  5  1  0  0  0  0
  4 10  1  0  0  0  0
  5  6  2  0  0  0  0
  5 11  1  0  0  0  0
  6 38  1  0  0  0  0
  7  8  2  0  0  0  0
  7  9  1  0  0  0  0
  8 39  1  0  0  0  0
  8 56  1  0  0  0  0
  9 40  1  0  0  0  0
  9 41  1  0  0  0  0
 10 12  2  0  0  0  0
 10 42  1  0  0  0  0
 11 12  1  0  0  0  0
 12 13  1  0  0  0  0
 13 14  2  0  0  0  0
 13 26  1  0  0  0  0
 14 15  1  0  0  0  0
 14 43  1  0  0  0  0
 15 16  1  0  0  0  0
 15 24  2  0  0  0  0
 16 17  1  0  0  0  0
 16 20  1  0  0  0  0
 16 44  1  6  0  0  0
 17 18  2  0  0  0  0
 17 19  1  0  0  0  0
 20 21  1  0  0  0  0
 20 45  1  0  0  0  0
 20 46  1  0  0  0  0
 21 22  2  0  0  0  0
 21 23  1  0  0  0  0
 24 25  1  0  0  0  0
 24 47  1  0  0  0  0
 25 26  2  0  0  0  0
 25 28  1  0  0  0  0
 26 27  1  0  0  0  0
 27 48  1  0  0  0  0
 28 29  2  0  0  0  0
 28 33  1  0  0  0  0
 29 30  1  0  0  0  0
 29 34  1  0  0  0  0
 30 31  2  0  0  0  0
 30 49  1  0  0  0  0
 31 32  1  0  0  0  0
 31 50  1  0  0  0  0
 32 33  2  0  0  0  0
 32 51  1  0  0  0  0
 33 52  1  0  0  0  0
 34 35  1  0  0  0  0
 35 53  1  0  0  0  0
 35 54  1  0  0  0  0
 35 55  1  0  0  0  0
M  CHG  1  10   1
M  END
$$$$
