326
 OpenBabel04041916583D

 46 48  0  0  0  0  0  0  0  0999 V2000
  -14.4866  -23.2835  -20.7355 C   0  0  0  0  0  0  0  0  0  0  0  0
  -14.6123  -23.4434  -22.1368 C   0  0  0  0  0  0  0  0  0  0  0  0
  -13.9893  -22.5351  -22.9975 C   0  0  0  0  0  0  0  0  0  0  0  0
  -13.2579  -21.4675  -22.4774 C   0  0  0  0  0  0  0  0  0  0  0  0
  -13.1204  -21.2995  -21.0699 C   0  0  0  0  0  0  0  0  0  0  0  0
  -13.7326  -22.2261  -20.1639 C   0  0  0  0  0  0  0  0  0  0  0  0
  -15.6032  -24.8604  -22.9044 S   0  0  0  0  0  0  0  0  0  0  0  0
  -16.1278  -25.5683  -21.7329 O   0  0  0  0  0  0  0  0  0  0  0  0
  -14.6171  -25.6079  -23.6855 O   0  0  0  0  0  0  0  0  0  0  0  0
  -16.6130  -24.1836  -23.7187 O   0  0  0  0  0  0  0  0  0  0  0  0
  -12.3780  -20.1833  -20.6611 N   0  3  0  0  0  0  0  0  0  0  0  0
  -12.5020  -18.9613  -21.3231 N   0  3  0  0  0  0  0  0  0  0  0  0
  -11.7952  -18.0340  -20.5523 C   0  0  0  0  0  0  0  0  0  0  0  0
  -11.0439  -18.6080  -19.5853 C   0  0  0  0  0  0  0  0  0  0  0  0
  -11.3965  -20.1256  -19.6589 C   0  0  0  0  0  0  0  0  0  0  0  0
  -13.7112  -22.1598  -18.6337 C   0  0  0  0  0  0  0  0  0  0  0  0
  -10.9179  -21.0395  -19.0458 O   0  0  0  0  0  0  0  0  0  0  0  0
   -9.5190  -18.8359  -17.9142 N   0  0  0  0  0  0  0  0  0  0  0  0
  -10.1628  -18.0513  -18.6790 N   0  0  0  0  0  0  0  0  0  0  0  0
  -11.8727  -16.5710  -20.8558 C   0  0  0  0  0  0  0  0  0  0  0  0
   -8.4796  -21.2361  -16.8557 O   0  0  0  0  0  0  0  0  0  0  0  0
   -7.8045  -20.6179  -15.9837 C   0  0  0  0  0  0  0  0  0  0  0  0
   -7.9558  -19.0562  -15.9192 C   0  0  0  0  0  0  0  0  0  0  0  0
   -8.7395  -18.2549  -16.8388 C   0  0  0  0  0  0  0  0  0  0  0  0
   -7.0124  -21.1834  -15.1553 O   0  0  0  0  0  0  0  0  0  0  0  0
   -7.2595  -18.4088  -14.8457 C   0  0  0  0  0  0  0  0  0  0  0  0
   -7.3173  -17.0101  -14.6751 C   0  0  0  0  0  0  0  0  0  0  0  0
   -8.0425  -16.2198  -15.5928 C   0  0  0  0  0  0  0  0  0  0  0  0
   -8.7537  -16.8421  -16.6331 C   0  0  0  0  0  0  0  0  0  0  0  0
   -8.2069  -14.3780  -15.3671 S   0  0  0  0  0  0  0  0  0  0  0  0
   -8.0348  -14.2099  -13.9240 O   0  0  0  0  0  0  0  0  0  0  0  0
   -9.5492  -14.0877  -15.8660 O   0  0  0  0  0  0  0  0  0  0  0  0
   -7.1304  -13.7989  -16.1713 O   0  0  0  0  0  0  0  0  0  0  0  0
  -14.9723  -23.9880  -20.0622 H   0  0  0  0  0  0  0  0  0  0  0  0
  -14.0796  -22.6734  -24.0723 H   0  0  0  0  0  0  0  0  0  0  0  0
  -12.7475  -20.7827  -23.1571 H   0  0  0  0  0  0  0  0  0  0  0  0
  -13.3024  -18.7366  -21.9250 H   0  0  0  0  0  0  0  0  0  0  0  0
  -14.2934  -22.9940  -18.2039 H   0  0  0  0  0  0  0  0  0  0  0  0
  -14.1683  -21.2475  -18.2274 H   0  0  0  0  0  0  0  0  0  0  0  0
  -12.7126  -22.2749  -18.2045 H   0  0  0  0  0  0  0  0  0  0  0  0
  -11.1781  -16.0123  -20.2251 H   0  0  0  0  0  0  0  0  0  0  0  0
  -12.8769  -16.1605  -20.6908 H   0  0  0  0  0  0  0  0  0  0  0  0
  -11.6031  -16.3731  -21.9008 H   0  0  0  0  0  0  0  0  0  0  0  0
   -6.6770  -19.0187  -14.1478 H   0  0  0  0  0  0  0  0  0  0  0  0
   -6.7949  -16.5420  -13.8424 H   0  0  0  0  0  0  0  0  0  0  0  0
   -9.3340  -16.2082  -17.3004 H   0  0  0  0  0  0  0  0  0  0  0  0
  1  2  2  0  0  0  0
  1  6  1  0  0  0  0
  1 34  1  0  0  0  0
  2  3  1  0  0  0  0
  2  7  1  0  0  0  0
  3  4  2  0  0  0  0
  3 35  1  0  0  0  0
  4  5  1  0  0  0  0
  4 36  1  0  0  0  0
  5  6  2  0  0  0  0
  5 11  1  0  0  0  0
  6 16  1  0  0  0  0
  7  8  2  0  0  0  0
  7  9  2  0  0  0  0
  7 10  1  0  0  0  0
 11 12  2  0  0  0  0
 11 15  1  0  0  0  0
 12 13  1  0  0  0  0
 12 37  1  0  0  0  0
 13 14  2  0  0  0  0
 13 20  1  0  0  0  0
 14 15  1  0  0  0  0
 14 19  1  0  0  0  0
 15 17  2  0  0  0  0
 16 38  1  0  0  0  0
 16 39  1  0  0  0  0
 16 40  1  0  0  0  0
 18 19  2  0  0  0  0
 18 24  1  0  0  0  0
 20 41  1  0  0  0  0
 20 42  1  0  0  0  0
 20 43  1  0  0  0  0
 21 22  2  0  0  0  0
 22 23  1  0  0  0  0
 22 25  1  0  0  0  0
 23 24  2  0  0  0  0
 23 26  1  0  0  0  0
 24 29  1  0  0  0  0
 26 27  2  0  0  0  0
 26 44  1  0  0  0  0
 27 28  1  0  0  0  0
 27 45  1  0  0  0  0
 28 29  2  0  0  0  0
 28 30  1  0  0  0  0
 29 46  1  0  0  0  0
 30 31  2  0  0  0  0
 30 32  2  0  0  0  0
 30 33  1  0  0  0  0
M  CHG  2  11   1  12   1
M  END
$$$$
