3OL
 OpenBabel04041914473D

 27 26  0  0  1  0  0  0  0  0999 V2000
   -2.0230   -1.2463    3.9083 C   0  0  0  0  0  0  0  0  0  0  0  0
   -1.3443    0.0901    3.6740 C   0  0  0  0  0  0  0  0  0  0  0  0
    0.1669    0.1097    3.9192 C   0  0  1  0  0  0  0  0  0  0  0  0
    0.6456    1.3647    3.4182 O   0  0  0  0  0  0  0  0  0  0  0  0
    0.5065    0.0275    5.4109 C   0  0  0  0  0  0  0  0  0  0  0  0
    0.9024   -1.3815    5.8369 C   0  0  0  0  0  0  0  0  0  0  0  0
    1.2370   -1.4143    7.3315 C   0  0  0  0  0  0  0  0  0  0  0  0
    0.0205   -1.7547    8.1974 C   0  0  0  0  0  0  0  0  0  0  0  0
    0.2505   -3.0517    8.9560 C   0  0  0  0  0  0  0  0  0  0  0  0
   -3.0979   -1.1425    3.7317 H   0  0  0  0  0  0  0  0  0  0  0  0
   -1.9026   -1.6007    4.9369 H   0  0  0  0  0  0  0  0  0  0  0  0
   -1.6392   -2.0115    3.2273 H   0  0  0  0  0  0  0  0  0  0  0  0
   -1.8146    0.8439    4.3213 H   0  0  0  0  0  0  0  0  0  0  0  0
   -1.5480    0.4164    2.6483 H   0  0  0  0  0  0  0  0  0  0  0  0
    0.6676   -0.6768    3.3415 H   0  0  0  0  0  0  0  0  0  0  0  0
    1.6089    1.3634    3.5020 H   0  0  0  0  0  0  0  0  0  0  0  0
   -0.3450    0.3691    6.0121 H   0  0  0  0  0  0  0  0  0  0  0  0
    1.3299    0.7158    5.6465 H   0  0  0  0  0  0  0  0  0  0  0  0
    1.7825   -1.6940    5.2672 H   0  0  0  0  0  0  0  0  0  0  0  0
    0.1151   -2.1080    5.6082 H   0  0  0  0  0  0  0  0  0  0  0  0
    1.6393   -0.4420    7.6460 H   0  0  0  0  0  0  0  0  0  0  0  0
    2.0421   -2.1407    7.4896 H   0  0  0  0  0  0  0  0  0  0  0  0
   -0.8946   -1.8432    7.6012 H   0  0  0  0  0  0  0  0  0  0  0  0
   -0.1518   -0.9467    8.9178 H   0  0  0  0  0  0  0  0  0  0  0  0
   -0.6168   -3.2895    9.5794 H   0  0  0  0  0  0  0  0  0  0  0  0
    1.1279   -2.9711    9.6069 H   0  0  0  0  0  0  0  0  0  0  0  0
    0.4129   -3.8834    8.2612 H   0  0  0  0  0  0  0  0  0  0  0  0
  1  2  1  0  0  0  0
  1 10  1  0  0  0  0
  1 11  1  0  0  0  0
  1 12  1  0  0  0  0
  2  3  1  0  0  0  0
  2 13  1  0  0  0  0
  2 14  1  0  0  0  0
  3  4  1  0  0  0  0
  3  5  1  0  0  0  0
  3 15  1  6  0  0  0
  4 16  1  0  0  0  0
  5  6  1  0  0  0  0
  5 17  1  0  0  0  0
  5 18  1  0  0  0  0
  6  7  1  0  0  0  0
  6 19  1  0  0  0  0
  6 20  1  0  0  0  0
  7  8  1  0  0  0  0
  7 21  1  0  0  0  0
  7 22  1  0  0  0  0
  8  9  1  0  0  0  0
  8 23  1  0  0  0  0
  8 24  1  0  0  0  0
  9 25  1  0  0  0  0
  9 26  1  0  0  0  0
  9 27  1  0  0  0  0
M  END
$$$$
