49A
 OpenBabel04041914383D

 40 40  0  0  1  0  0  0  0  0999 V2000
   23.5185   19.8950   64.8104 C   0  0  0  0  0  0  0  0  0  0  0  0
   24.1884   18.7058   64.0248 C   0  0  0  0  0  0  0  0  0  0  0  0
   23.4892   17.6495   63.6065 C   0  0  0  0  0  0  0  0  0  0  0  0
   24.1099   16.6639   62.6874 C   0  0  1  0  0  0  0  0  0  0  0  0
   25.6600   16.6971   62.7292 C   0  0  2  0  0  0  0  0  0  0  0  0
   26.0925   18.1643   62.6817 C   0  0  2  0  0  0  0  0  0  0  0  0
   27.6126   18.3864   62.7966 C   0  0  1  0  0  0  0  0  0  0  0  0
   27.9295   19.8769   62.5576 C   0  0  1  0  0  0  0  0  0  0  0  0
   29.3255   20.2896   63.0333 C   0  0  0  0  0  0  0  0  0  0  0  0
   26.9811   14.7916   61.8101 C   0  0  0  0  0  0  0  0  0  0  0  0
   27.5257   14.1887   60.5452 C   0  0  0  0  0  0  0  0  0  0  0  0
   26.2118   15.9236   61.6009 N   0  0  0  0  0  0  0  0  0  0  0  0
   24.2816   20.8958   64.9465 O   0  0  0  0  0  0  0  0  0  0  0  0
   22.3154   19.6978   65.1354 O   0  0  0  0  0  0  0  0  0  0  0  0
   23.6546   15.2839   63.0013 N   0  3  0  0  0  0  0  0  0  0  0  0
   25.5220   18.8864   63.7622 O   0  0  0  0  0  0  0  0  0  0  0  0
   28.1262   17.9886   64.0708 O   0  0  0  0  0  0  0  0  0  0  0  0
   27.8442   20.1303   61.1464 O   0  0  0  0  0  0  0  0  0  0  0  0
   30.3769   19.6273   62.2106 N   0  3  0  0  0  0  0  0  0  0  0  0
   27.1425   14.3178   62.9133 O   0  0  0  0  0  0  0  0  0  0  0  0
   22.4466   17.5451   63.8996 H   0  0  0  0  0  0  0  0  0  0  0  0
   23.7604   16.8565   61.6684 H   0  0  0  0  0  0  0  0  0  0  0  0
   25.9815   16.2586   63.6819 H   0  0  0  0  0  0  0  0  0  0  0  0
   25.7404   18.6033   61.7349 H   0  0  0  0  0  0  0  0  0  0  0  0
   28.1286   17.7824   62.0436 H   0  0  0  0  0  0  0  0  0  0  0  0
   27.2028   20.5040   63.0891 H   0  0  0  0  0  0  0  0  0  0  0  0
   29.5107   20.0343   64.0760 H   0  0  0  0  0  0  0  0  0  0  0  0
   29.4655   21.3634   62.8802 H   0  0  0  0  0  0  0  0  0  0  0  0
   28.0893   13.2931   60.8024 H   0  0  0  0  0  0  0  0  0  0  0  0
   28.1778   14.8794   60.0152 H   0  0  0  0  0  0  0  0  0  0  0  0
   26.6847   13.8950   59.8981 H   0  0  0  0  0  0  0  0  0  0  0  0
   26.1049   16.2751   60.6555 H   0  0  0  0  0  0  0  0  0  0  0  0
   24.1096   14.6064   62.3833 H   0  0  0  0  0  0  0  0  0  0  0  0
   23.9433   15.0621   63.9689 H   0  0  0  0  0  0  0  0  0  0  0  0
   27.6103   18.4594   64.7644 H   0  0  0  0  0  0  0  0  0  0  0  0
   27.8747   21.1000   61.0161 H   0  0  0  0  0  0  0  0  0  0  0  0
   31.3147   19.9155   62.5129 H   0  0  0  0  0  0  0  0  0  0  0  0
   30.3229   18.6049   62.3057 H   0  0  0  0  0  0  0  0  0  0  0  0
   22.6444   15.2126   62.9427 H   0  0  0  0  0  0  0  0  0  0  0  0
   30.2666   19.8563   61.2121 H   0  0  0  0  0  0  0  0  0  0  0  0
  1 14  2  0  0  0  0
  1 13  1  0  0  0  0
  1  2  1  0  0  0  0
  2 16  1  0  0  0  0
  2  3  2  0  0  0  0
  3  4  1  0  0  0  0
  3 21  1  0  0  0  0
  4 15  1  0  0  0  0
  4  5  1  0  0  0  0
  4 22  1  6  0  0  0
  5 12  1  0  0  0  0
  5  6  1  0  0  0  0
  5 23  1  1  0  0  0
  6 16  1  0  0  0  0
  6  7  1  0  0  0  0
  6 24  1  6  0  0  0
  7 17  1  0  0  0  0
  7  8  1  0  0  0  0
  7 25  1  6  0  0  0
  8 18  1  0  0  0  0
  8  9  1  0  0  0  0
  8 26  1  1  0  0  0
  9 19  1  0  0  0  0
  9 27  1  0  0  0  0
  9 28  1  0  0  0  0
 10 12  1  0  0  0  0
 10 20  2  0  0  0  0
 10 11  1  0  0  0  0
 11 29  1  0  0  0  0
 11 30  1  0  0  0  0
 11 31  1  0  0  0  0
 12 32  1  0  0  0  0
 15 33  1  0  0  0  0
 15 34  1  0  0  0  0
 15 39  1  0  0  0  0
 17 35  1  0  0  0  0
 18 36  1  0  0  0  0
 19 37  1  0  0  0  0
 19 38  1  0  0  0  0
 19 40  1  0  0  0  0
M  CHG  2  15   1  19   1
M  END
$$$$
