4AX
 OpenBabel04041916193D

 14 14  0  0  1  0  0  0  0  0999 V2000
   23.4262   41.0762   39.0529 O   0  0  0  0  0  0  0  0  0  0  0  0
   22.0472   38.2729   40.5846 O   0  0  0  0  0  0  0  0  0  0  0  0
   21.3630   41.8476   40.8111 N   0  3  0  0  0  0  0  0  0  0  0  0
   23.0094   38.8929   39.7439 N   0  0  0  0  0  0  0  0  0  0  0  0
   21.3982   40.4954   40.1937 C   0  0  2  0  0  0  0  0  0  0  0  0
   21.3235   39.3559   41.1911 C   0  0  0  0  0  0  0  0  0  0  0  0
   22.7374   40.2183   39.5729 C   0  0  0  0  0  0  0  0  0  0  0  0
   20.4526   42.0955   41.2180 H   0  0  0  0  0  0  0  0  0  0  0  0
   22.1017   41.9649   41.5217 H   0  0  0  0  0  0  0  0  0  0  0  0
   23.8827   38.4158   39.5175 H   0  0  0  0  0  0  0  0  0  0  0  0
   20.6148   40.4400   39.4307 H   0  0  0  0  0  0  0  0  0  0  0  0
   21.8066   39.5911   42.1476 H   0  0  0  0  0  0  0  0  0  0  0  0
   20.2887   39.0557   41.3838 H   0  0  0  0  0  0  0  0  0  0  0  0
   21.5890   42.5395   40.0757 H   0  0  0  0  0  0  0  0  0  0  0  0
  1  7  2  0  0  0  0
  2  4  1  0  0  0  0
  2  6  1  0  0  0  0
  3  5  1  0  0  0  0
  3  8  1  0  0  0  0
  3  9  1  0  0  0  0
  3 14  1  0  0  0  0
  4  7  1  0  0  0  0
  4 10  1  0  0  0  0
  5  7  1  0  0  0  0
  5  6  1  0  0  0  0
  5 11  1  6  0  0  0
  6 12  1  0  0  0  0
  6 13  1  0  0  0  0
M  CHG  1   3   1
M  END
$$$$
