4PP
 OpenBabel04041917413D

 54 56  0  0  1  0  0  0  0  0999 V2000
    0.5977   16.4151   19.1432 C   0  0  0  0  0  0  0  0  0  0  0  0
    0.0196   15.2976   19.2705 O   0  0  0  0  0  0  0  0  0  0  0  0
    1.6803   16.8225   19.6554 O   0  0  0  0  0  0  0  0  0  0  0  0
   -1.6582   25.9506   17.8379 N   0  3  0  0  0  0  0  0  0  0  0  0
   -2.4876   25.2778   17.0184 C   0  0  0  0  0  0  0  0  0  0  0  0
   -2.5684   23.8901   17.0851 C   0  0  0  0  0  0  0  0  0  0  0  0
   -1.7878   23.1950   18.0056 C   0  0  0  0  0  0  0  0  0  0  0  0
   -0.9404   23.9379   18.8324 C   0  0  0  0  0  0  0  0  0  0  0  0
   -0.8883   25.3171   18.7350 C   0  0  0  0  0  0  0  0  0  0  0  0
   -1.8526   21.8214   18.0932 N   0  0  0  0  0  0  0  0  0  0  0  0
   -0.1655   17.4373   18.2746 C   0  0  1  0  0  0  0  0  0  0  0  0
    0.0677   18.8902   18.7206 C   0  0  0  0  0  0  0  0  0  0  0  0
   -1.2581   19.5984   19.0028 C   0  0  0  0  0  0  0  0  0  0  0  0
   -1.0345   21.0989   19.0642 C   0  0  0  0  0  0  0  0  0  0  0  0
    4.9364   20.3070   10.3858 N   0  0  0  0  0  0  0  0  0  0  0  0
    3.2016   18.8893   10.0436 N   0  0  0  0  0  0  0  0  0  0  0  0
    4.0872   19.4183   10.8617 C   0  0  0  0  0  0  0  0  0  0  0  0
    0.7390   16.8009   14.0948 C   0  0  0  0  0  0  0  0  0  0  0  0
   -0.4481   16.3047   14.6486 C   0  0  0  0  0  0  0  0  0  0  0  0
   -0.7374   16.5191   15.9906 C   0  0  0  0  0  0  0  0  0  0  0  0
    0.1564   17.2283   16.7972 C   0  0  0  0  0  0  0  0  0  0  0  0
    1.3537   17.7131   16.2189 C   0  0  0  0  0  0  0  0  0  0  0  0
    1.6691   17.5288   14.8597 C   0  0  0  0  0  0  0  0  0  0  0  0
    5.2744   18.7308   14.4034 C   0  0  0  0  0  0  0  0  0  0  0  0
    4.1124   18.2137   14.9874 C   0  0  0  0  0  0  0  0  0  0  0  0
    2.9225   18.0799   14.2615 C   0  0  0  0  0  0  0  0  0  0  0  0
    2.9539   18.5066   12.9133 C   0  0  0  0  0  0  0  0  0  0  0  0
    4.1179   19.0191   12.2900 C   0  0  0  0  0  0  0  0  0  0  0  0
    5.2763   19.1235   13.0630 C   0  0  0  0  0  0  0  0  0  0  0  0
   -3.0700   25.8724   16.3253 H   0  0  0  0  0  0  0  0  0  0  0  0
   -3.2417   23.3576   16.4201 H   0  0  0  0  0  0  0  0  0  0  0  0
   -0.3044   23.4607   19.5712 H   0  0  0  0  0  0  0  0  0  0  0  0
   -0.2459   25.9204   19.3623 H   0  0  0  0  0  0  0  0  0  0  0  0
   -2.4605   21.2763   17.4892 H   0  0  0  0  0  0  0  0  0  0  0  0
   -1.2317   17.2096   18.4245 H   0  0  0  0  0  0  0  0  0  0  0  0
    0.6073   19.4605   17.9576 H   0  0  0  0  0  0  0  0  0  0  0  0
    0.6776   18.9569   19.6303 H   0  0  0  0  0  0  0  0  0  0  0  0
   -1.6329   19.2517   19.9744 H   0  0  0  0  0  0  0  0  0  0  0  0
   -2.0074   19.3303   18.2514 H   0  0  0  0  0  0  0  0  0  0  0  0
    0.0192   21.3381   18.8765 H   0  0  0  0  0  0  0  0  0  0  0  0
   -1.2806   21.4468   20.0750 H   0  0  0  0  0  0  0  0  0  0  0  0
    4.9328   20.5829    9.4114 H   0  0  0  0  0  0  0  0  0  0  0  0
    5.6232   20.7479   10.9793 H   0  0  0  0  0  0  0  0  0  0  0  0
    3.1407   19.1419    9.0681 H   0  0  0  0  0  0  0  0  0  0  0  0
    0.9322   16.5710   13.0519 H   0  0  0  0  0  0  0  0  0  0  0  0
   -1.1391   15.7276   14.0393 H   0  0  0  0  0  0  0  0  0  0  0  0
   -1.6482   16.1027   16.4220 H   0  0  0  0  0  0  0  0  0  0  0  0
    2.0463   18.2434   16.8710 H   0  0  0  0  0  0  0  0  0  0  0  0
    6.1804   18.8067   15.0036 H   0  0  0  0  0  0  0  0  0  0  0  0
    4.1591   17.8967   16.0309 H   0  0  0  0  0  0  0  0  0  0  0  0
    2.0258   18.4530   12.3549 H   0  0  0  0  0  0  0  0  0  0  0  0
    6.2171   19.4883   12.6519 H   0  0  0  0  0  0  0  0  0  0  0  0
   -1.6109   26.9634   17.7804 H   0  0  0  0  0  0  0  0  0  0  0  0
    2.5575   18.1763   10.3657 H   0  0  0  0  0  0  0  0  0  0  0  0
  1 11  1  0  0  0  0
  1  3  2  0  0  0  0
  1  2  1  0  0  0  0
  4  5  1  0  0  0  0
  4  9  2  0  0  0  0
  4 53  1  0  0  0  0
  5  6  2  0  0  0  0
  5 30  1  0  0  0  0
  6  7  1  0  0  0  0
  6 31  1  0  0  0  0
  7 10  1  0  0  0  0
  7  8  2  0  0  0  0
  8  9  1  0  0  0  0
  8 32  1  0  0  0  0
  9 33  1  0  0  0  0
 10 14  1  0  0  0  0
 10 34  1  0  0  0  0
 11 21  1  0  0  0  0
 11 12  1  0  0  0  0
 11 35  1  1  0  0  0
 12 13  1  0  0  0  0
 12 36  1  0  0  0  0
 12 37  1  0  0  0  0
 13 14  1  0  0  0  0
 13 38  1  0  0  0  0
 13 39  1  0  0  0  0
 14 40  1  0  0  0  0
 14 41  1  0  0  0  0
 15 17  1  0  0  0  0
 15 42  1  0  0  0  0
 15 43  1  0  0  0  0
 16 17  2  0  0  0  0
 16 44  1  0  0  0  0
 16 54  1  0  0  0  0
 17 28  1  0  0  0  0
 18 19  1  0  0  0  0
 18 23  2  0  0  0  0
 18 45  1  0  0  0  0
 19 20  2  0  0  0  0
 19 46  1  0  0  0  0
 20 21  1  0  0  0  0
 20 47  1  0  0  0  0
 21 22  2  0  0  0  0
 22 23  1  0  0  0  0
 22 48  1  0  0  0  0
 23 26  1  0  0  0  0
 24 25  2  0  0  0  0
 24 29  1  0  0  0  0
 24 49  1  0  0  0  0
 25 26  1  0  0  0  0
 25 50  1  0  0  0  0
 26 27  2  0  0  0  0
 27 28  1  0  0  0  0
 27 51  1  0  0  0  0
 28 29  2  0  0  0  0
 29 52  1  0  0  0  0
M  CHG  1   4   1
M  END
$$$$
