4SP
 OpenBabel04041914533D

 50 53  0  0  0  0  0  0  0  0999 V2000
    7.6995   43.8697   49.8336 C   0  0  0  0  0  0  0  0  0  0  0  0
   10.4774   46.5064   51.9596 C   0  0  0  0  0  0  0  0  0  0  0  0
    4.8441   45.7625   51.7877 C   0  0  0  0  0  0  0  0  0  0  0  0
    3.9128   46.1648   52.9397 C   0  0  0  0  0  0  0  0  0  0  0  0
    4.3045   45.4624   54.2541 C   0  0  0  0  0  0  0  0  0  0  0  0
    3.3770   45.8447   55.4071 C   0  0  0  0  0  0  0  0  0  0  0  0
    1.9144   45.5762   55.0689 C   0  0  0  0  0  0  0  0  0  0  0  0
    1.5223   46.2538   53.7593 C   0  0  0  0  0  0  0  0  0  0  0  0
    2.4445   45.8809   52.5979 C   0  0  0  0  0  0  0  0  0  0  0  0
    4.4154   40.7884   47.8403 C   0  0  0  0  0  0  0  0  0  0  0  0
    3.6180   40.7269   48.9894 C   0  0  0  0  0  0  0  0  0  0  0  0
    4.0088   41.3846   50.1533 C   0  0  0  0  0  0  0  0  0  0  0  0
    5.2225   42.0770   50.1680 C   0  0  0  0  0  0  0  0  0  0  0  0
    1.0551   40.5178   49.9079 N   0  0  0  0  0  0  0  0  0  0  0  0
    6.7765   44.5585   50.5253 N   0  0  0  0  0  0  0  0  0  0  0  0
    7.1438   45.5355   51.3805 C   0  0  0  0  0  0  0  0  0  0  0  0
    6.1742   46.1986   52.1038 O   0  0  0  0  0  0  0  0  0  0  0  0
    8.4985   45.8220   51.5273 C   0  0  0  0  0  0  0  0  0  0  0  0
    9.2195   46.7215   52.2833 N   0  0  0  0  0  0  0  0  0  0  0  0
   10.6021   45.4985   51.0422 N   0  3  0  0  0  0  0  0  0  0  0  0
    9.3471   45.0545   50.7462 C   0  0  0  0  0  0  0  0  0  0  0  0
    9.0232   44.0837   49.8790 N   0  0  0  0  0  0  0  0  0  0  0  0
    7.2458   42.8620   48.9907 N   0  0  0  0  0  0  0  0  0  0  0  0
    6.0533   42.1285   49.0323 C   0  0  0  0  0  0  0  0  0  0  0  0
    5.6192   41.4949   47.8696 C   0  0  0  0  0  0  0  0  0  0  0  0
    2.1492   39.7366   48.9247 S   0  0  0  0  0  0  0  0  0  0  0  0
    2.4502   38.4804   49.5653 O   0  0  0  0  0  0  0  0  0  0  0  0
    1.6156   39.8121   47.5926 O   0  0  0  0  0  0  0  0  0  0  0  0
   11.3297   47.0439   52.3488 H   0  0  0  0  0  0  0  0  0  0  0  0
    4.7794   44.6760   51.6606 H   0  0  0  0  0  0  0  0  0  0  0  0
    4.5340   46.2442   50.8508 H   0  0  0  0  0  0  0  0  0  0  0  0
    4.0337   47.2443   53.0908 H   0  0  0  0  0  0  0  0  0  0  0  0
    5.3325   45.7243   54.5278 H   0  0  0  0  0  0  0  0  0  0  0  0
    4.2761   44.3728   54.1221 H   0  0  0  0  0  0  0  0  0  0  0  0
    3.5058   46.9091   55.6396 H   0  0  0  0  0  0  0  0  0  0  0  0
    3.6589   45.2886   56.3087 H   0  0  0  0  0  0  0  0  0  0  0  0
    1.2746   45.9490   55.8783 H   0  0  0  0  0  0  0  0  0  0  0  0
    1.7378   44.4955   55.0020 H   0  0  0  0  0  0  0  0  0  0  0  0
    1.5611   47.3404   53.9042 H   0  0  0  0  0  0  0  0  0  0  0  0
    0.4871   46.0001   53.5075 H   0  0  0  0  0  0  0  0  0  0  0  0
    2.3057   44.8231   52.3380 H   0  0  0  0  0  0  0  0  0  0  0  0
    2.1558   46.4633   51.7145 H   0  0  0  0  0  0  0  0  0  0  0  0
    4.1175   40.2755   46.9296 H   0  0  0  0  0  0  0  0  0  0  0  0
    3.4120   41.3494   51.0575 H   0  0  0  0  0  0  0  0  0  0  0  0
    5.5314   42.5439   51.0970 H   0  0  0  0  0  0  0  0  0  0  0  0
    0.1243   40.1121   49.9355 H   0  0  0  0  0  0  0  0  0  0  0  0
    1.2519   41.4223   50.3203 H   0  0  0  0  0  0  0  0  0  0  0  0
   11.4557   45.1452   50.6372 H   0  0  0  0  0  0  0  0  0  0  0  0
    7.9663   42.5564   48.3527 H   0  0  0  0  0  0  0  0  0  0  0  0
    6.2203   41.5413   46.9618 H   0  0  0  0  0  0  0  0  0  0  0  0
  1 23  1  0  0  0  0
  1 22  2  0  0  0  0
  1 15  1  0  0  0  0
  2 19  1  0  0  0  0
  2 20  2  0  0  0  0
  2 29  1  0  0  0  0
  3 17  1  0  0  0  0
  3  4  1  0  0  0  0
  3 30  1  0  0  0  0
  3 31  1  0  0  0  0
  4  9  1  0  0  0  0
  4  5  1  0  0  0  0
  4 32  1  0  0  0  0
  5  6  1  0  0  0  0
  5 33  1  0  0  0  0
  5 34  1  0  0  0  0
  6  7  1  0  0  0  0
  6 35  1  0  0  0  0
  6 36  1  0  0  0  0
  7  8  1  0  0  0  0
  7 37  1  0  0  0  0
  7 38  1  0  0  0  0
  8  9  1  0  0  0  0
  8 39  1  0  0  0  0
  8 40  1  0  0  0  0
  9 41  1  0  0  0  0
  9 42  1  0  0  0  0
 10 11  2  0  0  0  0
 10 25  1  0  0  0  0
 10 43  1  0  0  0  0
 11 12  1  0  0  0  0
 11 26  1  0  0  0  0
 12 13  2  0  0  0  0
 12 44  1  0  0  0  0
 13 24  1  0  0  0  0
 13 45  1  0  0  0  0
 14 26  1  0  0  0  0
 14 46  1  0  0  0  0
 14 47  1  0  0  0  0
 15 16  2  0  0  0  0
 16 18  1  0  0  0  0
 16 17  1  0  0  0  0
 18 21  2  0  0  0  0
 18 19  1  0  0  0  0
 20 21  1  0  0  0  0
 20 48  1  0  0  0  0
 21 22  1  0  0  0  0
 23 24  1  0  0  0  0
 23 49  1  0  0  0  0
 24 25  2  0  0  0  0
 25 50  1  0  0  0  0
 26 28  2  0  0  0  0
 26 27  2  0  0  0  0
M  CHG  1  20   1
M  END
$$$$
