515
 OpenBabel04041915573D

 87 91  0  0  1  0  0  0  0  0999 V2000
   35.7891   28.6976   20.5988 C   0  0  0  0  0  0  0  0  0  0  0  0
   35.0610   28.1685   21.7047 C   0  0  0  0  0  0  0  0  0  0  0  0
   33.7990   28.6948   22.0121 C   0  0  0  0  0  0  0  0  0  0  0  0
   33.2337   29.7026   21.2287 C   0  0  0  0  0  0  0  0  0  0  0  0
   33.9216   30.2394   20.1279 C   0  0  0  0  0  0  0  0  0  0  0  0
   35.2235   29.7462   19.8090 C   0  0  0  0  0  0  0  0  0  0  0  0
   35.6116   27.1223   22.5333 N   0  0  0  0  0  0  0  0  0  0  0  0
   32.6114   30.8256   17.9820 C   0  0  2  0  0  0  0  0  0  0  0  0
   31.9919   31.9568   17.2518 N   0  0  0  0  0  0  0  0  0  0  0  0
   32.4583   32.3699   16.0240 C   0  0  0  0  0  0  0  0  0  0  0  0
   31.6138   29.6498   18.1730 C   0  0  0  0  0  0  0  0  0  0  0  0
   30.2918   29.9798   18.4535 N   0  0  0  0  0  0  0  0  0  0  0  0
   29.2803   28.9350   18.6314 C   0  0  0  0  0  0  0  0  0  0  0  0
   28.1454   29.3203   19.6120 C   0  0  0  0  0  0  0  0  0  0  0  0
   26.6610   30.6201   22.5894 C   0  0  0  0  0  0  0  0  0  0  0  0
   28.5740   29.3947   21.0908 C   0  0  0  0  0  0  0  0  0  0  0  0
   25.9655   29.3758   22.6889 O   0  0  0  0  0  0  0  0  0  0  0  0
   33.4051   31.8680   15.4298 O   0  0  0  0  0  0  0  0  0  0  0  0
   31.6987   33.5332   15.4465 C   0  0  0  0  0  0  0  0  0  0  0  0
   35.9473   27.4016   23.8820 C   0  0  0  0  0  0  0  0  0  0  0  0
   32.0054   28.4839   18.1917 O   0  0  0  0  0  0  0  0  0  0  0  0
   33.2064   31.3142   19.3192 C   0  0  0  0  0  0  0  0  0  0  0  0
   36.1303   26.5570   24.7650 O   0  0  0  0  0  0  0  0  0  0  0  0
   35.9814   28.8739   24.4190 C   0  0  0  0  0  0  0  0  0  0  0  0
   36.9439   29.6310   24.0549 O   0  0  0  0  0  0  0  0  0  0  0  0
   36.4717   24.7550   22.1691 C   0  0  0  0  0  0  0  0  0  0  0  0
   35.4749   25.7576   22.0570 C   0  0  0  0  0  0  0  0  0  0  0  0
   34.2448   25.3770   21.4548 C   0  0  0  0  0  0  0  0  0  0  0  0
   34.0022   24.0862   20.9612 C   0  0  0  0  0  0  0  0  0  0  0  0
   34.9950   23.1280   21.0294 C   0  0  0  0  0  0  0  0  0  0  0  0
   36.2064   23.4634   21.6242 C   0  0  0  0  0  0  0  0  0  0  0  0
   38.4198   23.8815   23.2267 O   0  0  0  0  0  0  0  0  0  0  0  0
   38.4856   26.0209   22.5195 O   0  0  0  0  0  0  0  0  0  0  0  0
   37.8734   24.9287   22.7294 C   0  0  0  0  0  0  0  0  0  0  0  0
   24.6835   29.3735   23.2284 C   0  0  0  0  0  0  0  0  0  0  0  0
   23.9562   30.5157   23.5834 C   0  0  0  0  0  0  0  0  0  0  0  0
   22.6402   30.4750   24.1098 C   0  0  0  0  0  0  0  0  0  0  0  0
   22.0169   29.2341   24.3066 C   0  0  0  0  0  0  0  0  0  0  0  0
   22.7305   28.0778   23.9710 C   0  0  0  0  0  0  0  0  0  0  0  0
   24.0565   28.1271   23.4382 C   0  0  0  0  0  0  0  0  0  0  0  0
   24.7134   26.8228   23.1522 C   0  0  0  0  0  0  0  0  0  0  0  0
   24.9229   26.0644   24.1413 O   0  0  0  0  0  0  0  0  0  0  0  0
   24.8797   26.5218   21.9198 O   0  0  0  0  0  0  0  0  0  0  0  0
   37.0898   28.2439   20.2693 C   0  0  0  0  0  0  0  0  0  0  0  0
   37.8218   28.7692   19.2050 C   0  0  0  0  0  0  0  0  0  0  0  0
   37.2764   29.7796   18.4320 C   0  0  0  0  0  0  0  0  0  0  0  0
   35.9975   30.2613   18.7368 C   0  0  0  0  0  0  0  0  0  0  0  0
   28.0514   30.6033   21.8911 C   0  0  0  0  0  0  0  0  0  0  0  0
   34.9991   29.2337   25.1608 O   0  0  0  0  0  0  0  0  0  0  0  0
   21.9345   31.6439   24.4547 C   0  0  0  0  0  0  0  0  0  0  0  0
   20.6401   31.5914   24.9820 C   0  0  0  0  0  0  0  0  0  0  0  0
   20.0194   30.3636   25.1711 C   0  0  0  0  0  0  0  0  0  0  0  0
   20.7003   29.1856   24.8338 C   0  0  0  0  0  0  0  0  0  0  0  0
   33.2363   28.3022   22.8579 H   0  0  0  0  0  0  0  0  0  0  0  0
   32.2400   30.0588   21.4905 H   0  0  0  0  0  0  0  0  0  0  0  0
   33.4174   30.4343   17.3526 H   0  0  0  0  0  0  0  0  0  0  0  0
   31.2348   32.4594   17.6877 H   0  0  0  0  0  0  0  0  0  0  0  0
   29.9763   30.9135   18.2519 H   0  0  0  0  0  0  0  0  0  0  0  0
   29.7592   27.9993   18.9352 H   0  0  0  0  0  0  0  0  0  0  0  0
   28.8440   28.7573   17.6389 H   0  0  0  0  0  0  0  0  0  0  0  0
   27.3806   28.5336   19.5357 H   0  0  0  0  0  0  0  0  0  0  0  0
   27.6815   30.2501   19.2823 H   0  0  0  0  0  0  0  0  0  0  0  0
   26.0464   31.3492   22.0555 H   0  0  0  0  0  0  0  0  0  0  0  0
   26.8194   31.0083   23.6107 H   0  0  0  0  0  0  0  0  0  0  0  0
   29.6704   29.4482   21.1197 H   0  0  0  0  0  0  0  0  0  0  0  0
   28.3062   28.4677   21.6070 H   0  0  0  0  0  0  0  0  0  0  0  0
   32.1260   33.8013   14.4752 H   0  0  0  0  0  0  0  0  0  0  0  0
   31.7757   34.3980   16.1113 H   0  0  0  0  0  0  0  0  0  0  0  0
   30.6493   33.2615   15.3024 H   0  0  0  0  0  0  0  0  0  0  0  0
   33.9000   32.1476   19.1386 H   0  0  0  0  0  0  0  0  0  0  0  0
   32.4090   31.7644   19.9278 H   0  0  0  0  0  0  0  0  0  0  0  0
   33.4169   26.0788   21.4079 H   0  0  0  0  0  0  0  0  0  0  0  0
   33.0345   23.8407   20.5350 H   0  0  0  0  0  0  0  0  0  0  0  0
   34.8392   22.1283   20.6383 H   0  0  0  0  0  0  0  0  0  0  0  0
   36.9958   22.7119   21.6670 H   0  0  0  0  0  0  0  0  0  0  0  0
   24.4035   31.5065   23.4547 H   0  0  0  0  0  0  0  0  0  0  0  0
   22.2961   27.0910   24.1186 H   0  0  0  0  0  0  0  0  0  0  0  0
   37.5644   27.4748   20.8756 H   0  0  0  0  0  0  0  0  0  0  0  0
   38.8186   28.3870   19.0096 H   0  0  0  0  0  0  0  0  0  0  0  0
   37.8409   30.2015   17.6107 H   0  0  0  0  0  0  0  0  0  0  0  0
   35.6182   31.0658   18.1136 H   0  0  0  0  0  0  0  0  0  0  0  0
   28.1291   31.5069   21.2698 H   0  0  0  0  0  0  0  0  0  0  0  0
   28.7921   30.7783   22.6857 H   0  0  0  0  0  0  0  0  0  0  0  0
   22.4037   32.6151   24.3198 H   0  0  0  0  0  0  0  0  0  0  0  0
   20.1261   32.5096   25.2477 H   0  0  0  0  0  0  0  0  0  0  0  0
   19.0145   30.3133   25.5848 H   0  0  0  0  0  0  0  0  0  0  0  0
   20.2078   28.2309   24.9922 H   0  0  0  0  0  0  0  0  0  0  0  0
  1  2  2  0  0  0  0
  1  6  1  0  0  0  0
  1 44  1  0  0  0  0
  2  3  1  0  0  0  0
  2  7  1  0  0  0  0
  3  4  2  0  0  0  0
  3 54  1  0  0  0  0
  4  5  1  0  0  0  0
  4 55  1  0  0  0  0
  5  6  2  0  0  0  0
  5 22  1  0  0  0  0
  6 47  1  0  0  0  0
  7 20  1  0  0  0  0
  7 27  1  0  0  0  0
  8  9  1  0  0  0  0
  8 11  1  0  0  0  0
  8 22  1  0  0  0  0
  8 56  1  6  0  0  0
  9 10  1  0  0  0  0
  9 57  1  0  0  0  0
 10 18  2  0  0  0  0
 10 19  1  0  0  0  0
 11 12  1  0  0  0  0
 11 21  2  0  0  0  0
 12 13  1  0  0  0  0
 12 58  1  0  0  0  0
 13 14  1  0  0  0  0
 13 59  1  0  0  0  0
 13 60  1  0  0  0  0
 14 16  1  0  0  0  0
 14 61  1  0  0  0  0
 14 62  1  0  0  0  0
 15 48  1  0  0  0  0
 15 17  1  0  0  0  0
 15 63  1  0  0  0  0
 15 64  1  0  0  0  0
 16 48  1  0  0  0  0
 16 65  1  0  0  0  0
 16 66  1  0  0  0  0
 17 35  1  0  0  0  0
 19 67  1  0  0  0  0
 19 68  1  0  0  0  0
 19 69  1  0  0  0  0
 20 23  2  0  0  0  0
 20 24  1  0  0  0  0
 22 70  1  0  0  0  0
 22 71  1  0  0  0  0
 24 25  2  0  0  0  0
 24 49  1  0  0  0  0
 26 34  1  0  0  0  0
 26 31  2  0  0  0  0
 26 27  1  0  0  0  0
 27 28  2  0  0  0  0
 28 29  1  0  0  0  0
 28 72  1  0  0  0  0
 29 30  2  0  0  0  0
 29 73  1  0  0  0  0
 30 31  1  0  0  0  0
 30 74  1  0  0  0  0
 31 75  1  0  0  0  0
 32 34  2  0  0  0  0
 33 34  1  0  0  0  0
 35 36  2  0  0  0  0
 35 40  1  0  0  0  0
 36 37  1  0  0  0  0
 36 76  1  0  0  0  0
 37 38  2  0  0  0  0
 37 50  1  0  0  0  0
 38 39  1  0  0  0  0
 38 53  1  0  0  0  0
 39 40  2  0  0  0  0
 39 77  1  0  0  0  0
 40 41  1  0  0  0  0
 41 42  2  0  0  0  0
 41 43  1  0  0  0  0
 44 45  2  0  0  0  0
 44 78  1  0  0  0  0
 45 46  1  0  0  0  0
 45 79  1  0  0  0  0
 46 47  2  0  0  0  0
 46 80  1  0  0  0  0
 47 81  1  0  0  0  0
 48 82  1  0  0  0  0
 48 83  1  0  0  0  0
 50 51  2  0  0  0  0
 50 84  1  0  0  0  0
 51 52  1  0  0  0  0
 51 85  1  0  0  0  0
 52 53  2  0  0  0  0
 52 86  1  0  0  0  0
 53 87  1  0  0  0  0
M  END
$$$$
