5MP
 OpenBabel04041915343D

 13 13  0  0  1  0  0  0  0  0999 V2000
   26.7179    5.9545    4.3614 C   0  0  2  0  0  0  0  0  0  0  0  0
   27.1266    7.0302    5.1955 C   0  0  0  0  0  0  0  0  0  0  0  0
   27.3352    6.1444    3.1440 C   0  0  0  0  0  0  0  0  0  0  0  0
   25.8070    4.8382    4.7086 C   0  0  0  0  0  0  0  0  0  0  0  0
   27.9654    7.8364    4.4605 C   0  0  0  0  0  0  0  0  0  0  0  0
   28.0922    7.2846    3.2099 N   0  3  0  0  0  0  0  0  0  0  0  0
   26.8404    7.2091    6.2242 H   0  0  0  0  0  0  0  0  0  0  0  0
   27.2900    5.5506    2.2360 H   0  0  0  0  0  0  0  0  0  0  0  0
   25.4566    4.9268    5.7418 H   0  0  0  0  0  0  0  0  0  0  0  0
   26.3194    3.8767    4.5993 H   0  0  0  0  0  0  0  0  0  0  0  0
   24.9342    4.8378    4.0477 H   0  0  0  0  0  0  0  0  0  0  0  0
   28.4787    8.7475    4.7249 H   0  0  0  0  0  0  0  0  0  0  0  0
   28.6526    7.6626    2.4596 H   0  0  0  0  0  0  0  0  0  0  0  0
  1  2  1  0  0  0  0
  1  3  1  0  0  0  0
  1  4  1  6  0  0  0
  2  5  1  0  0  0  0
  2  7  1  0  0  0  0
  3  6  1  0  0  0  0
  3  8  1  0  0  0  0
  4  9  1  0  0  0  0
  4 10  1  0  0  0  0
  4 11  1  0  0  0  0
  5  6  1  0  0  0  0
  5 12  1  0  0  0  0
  6 13  1  0  0  0  0
M  CHG  1   6   1
M  END
$$$$
