607
 OpenBabel04041916043D

 54 57  0  0  1  0  0  0  0  0999 V2000
   44.3327   -3.0455   26.2310 C   0  0  0  0  0  0  0  0  0  0  0  0
   44.7224   -1.6792   26.2166 C   0  0  0  0  0  0  0  0  0  0  0  0
   44.6912   -0.8641   27.3423 C   0  0  0  0  0  0  0  0  0  0  0  0
   44.2704   -1.4956   28.4957 C   0  0  0  0  0  0  0  0  0  0  0  0
   43.8948   -2.8183   28.5700 C   0  0  0  0  0  0  0  0  0  0  0  0
   43.9075   -3.6171   27.4380 C   0  0  0  0  0  0  0  0  0  0  0  0
   44.3537   -3.8552   25.0061 C   0  0  0  0  0  0  0  0  0  0  0  0
   44.1848   -5.1603   25.0578 N   0  0  0  0  0  0  0  0  0  0  0  0
   44.5485   -3.2745   23.8430 N   0  0  0  0  0  0  0  0  0  0  0  0
   44.1037   -1.0415   29.7671 N   0  3  0  0  0  0  0  0  0  0  0  0
   43.5302   -3.1754   29.8230 N   0  0  0  0  0  0  0  0  0  0  0  0
   43.6379   -2.0735   30.5349 C   0  0  0  0  0  0  0  0  0  0  0  0
   43.3411   -1.9013   31.9357 C   0  0  0  0  0  0  0  0  0  0  0  0
   43.0819   -3.0300   32.7174 C   0  0  0  0  0  0  0  0  0  0  0  0
   42.8359   -2.9056   34.0890 C   0  0  0  0  0  0  0  0  0  0  0  0
   42.4554   -4.1409   34.9123 C   0  0  2  0  0  0  0  0  0  0  0  0
   40.9266   -4.3276   34.6615 C   0  0  0  0  0  0  0  0  0  0  0  0
   40.6166   -5.1326   33.7274 O   0  0  0  0  0  0  0  0  0  0  0  0
   40.1476   -3.5637   35.3145 O   0  0  0  0  0  0  0  0  0  0  0  0
   42.8006   -4.0263   36.4125 C   0  0  0  0  0  0  0  0  0  0  0  0
   43.4101   -5.2541   37.0872 C   0  0  0  0  0  0  0  0  0  0  0  0
   43.1931   -6.3829   36.5721 O   0  0  0  0  0  0  0  0  0  0  0  0
   44.1122   -4.9839   38.1127 O   0  0  0  0  0  0  0  0  0  0  0  0
   42.8769   -1.6213   34.6515 C   0  0  0  0  0  0  0  0  0  0  0  0
   43.1737   -0.4815   33.8978 C   0  0  0  0  0  0  0  0  0  0  0  0
   43.3526   -0.6324   32.5251 C   0  0  0  0  0  0  0  0  0  0  0  0
   43.6485    0.4796   31.7547 O   0  0  0  0  0  0  0  0  0  0  0  0
   43.2984    0.8162   34.5778 C   0  0  0  0  0  0  0  0  0  0  0  0
   44.5047    1.5336   34.7413 C   0  0  0  0  0  0  0  0  0  0  0  0
   44.5237    2.7302   35.4798 C   0  0  0  0  0  0  0  0  0  0  0  0
   43.3563    3.2419   36.0363 C   0  0  0  0  0  0  0  0  0  0  0  0
   42.1581    2.5607   35.8688 C   0  0  0  0  0  0  0  0  0  0  0  0
   42.1279    1.3591   35.1560 C   0  0  0  0  0  0  0  0  0  0  0  0
   45.7891    1.1596   34.1073 N   0  0  0  0  0  0  0  0  0  0  0  0
   46.7821    1.8681   34.3632 O   0  0  0  0  0  0  0  0  0  0  0  0
   45.8185    0.2902   33.2304 O   0  0  0  0  0  0  0  0  0  0  0  0
   45.0725   -1.1868   25.3194 H   0  0  0  0  0  0  0  0  0  0  0  0
   44.9710    0.1822   27.3318 H   0  0  0  0  0  0  0  0  0  0  0  0
   43.5691   -4.6360   27.5754 H   0  0  0  0  0  0  0  0  0  0  0  0
   44.1727   -5.7410   24.2383 H   0  0  0  0  0  0  0  0  0  0  0  0
   44.6681   -2.2684   23.7769 H   0  0  0  0  0  0  0  0  0  0  0  0
   44.5663   -3.7839   22.9764 H   0  0  0  0  0  0  0  0  0  0  0  0
   44.2526   -0.1076   30.1050 H   0  0  0  0  0  0  0  0  0  0  0  0
   43.0417   -4.0174   32.2585 H   0  0  0  0  0  0  0  0  0  0  0  0
   42.9964   -4.9965   34.4856 H   0  0  0  0  0  0  0  0  0  0  0  0
   41.9094   -3.7715   36.9991 H   0  0  0  0  0  0  0  0  0  0  0  0
   43.5263   -3.2229   36.5895 H   0  0  0  0  0  0  0  0  0  0  0  0
   42.6525   -1.5141   35.7097 H   0  0  0  0  0  0  0  0  0  0  0  0
   44.5206    0.7557   32.1007 H   0  0  0  0  0  0  0  0  0  0  0  0
   45.4493    3.2802   35.6244 H   0  0  0  0  0  0  0  0  0  0  0  0
   43.3964    4.1720   36.5938 H   0  0  0  0  0  0  0  0  0  0  0  0
   41.2434    2.9496   36.3078 H   0  0  0  0  0  0  0  0  0  0  0  0
   41.1792    0.8295   35.0600 H   0  0  0  0  0  0  0  0  0  0  0  0
   44.0273   -5.6400   25.9381 H   0  0  0  0  0  0  0  0  0  0  0  0
  1  2  2  0  0  0  0
  1  6  1  0  0  0  0
  1  7  1  0  0  0  0
  2  3  1  0  0  0  0
  2 37  1  0  0  0  0
  3  4  2  0  0  0  0
  3 38  1  0  0  0  0
  4  5  1  0  0  0  0
  4 10  1  0  0  0  0
  5  6  2  0  0  0  0
  5 11  1  0  0  0  0
  6 39  1  0  0  0  0
  7  8  2  0  0  0  0
  7  9  1  0  0  0  0
  8 40  1  0  0  0  0
  8 54  1  0  0  0  0
  9 41  1  0  0  0  0
  9 42  1  0  0  0  0
 10 12  2  0  0  0  0
 10 43  1  0  0  0  0
 11 12  1  0  0  0  0
 12 13  1  0  0  0  0
 13 14  2  0  0  0  0
 13 26  1  0  0  0  0
 14 15  1  0  0  0  0
 14 44  1  0  0  0  0
 15 16  1  0  0  0  0
 15 24  2  0  0  0  0
 16 17  1  0  0  0  0
 16 20  1  0  0  0  0
 16 45  1  6  0  0  0
 17 18  2  0  0  0  0
 17 19  1  0  0  0  0
 20 21  1  0  0  0  0
 20 46  1  0  0  0  0
 20 47  1  0  0  0  0
 21 22  2  0  0  0  0
 21 23  1  0  0  0  0
 24 25  1  0  0  0  0
 24 48  1  0  0  0  0
 25 26  2  0  0  0  0
 25 28  1  0  0  0  0
 26 27  1  0  0  0  0
 27 49  1  0  0  0  0
 28 29  2  0  0  0  0
 28 33  1  0  0  0  0
 29 30  1  0  0  0  0
 29 34  1  0  0  0  0
 30 31  2  0  0  0  0
 30 50  1  0  0  0  0
 31 32  1  0  0  0  0
 31 51  1  0  0  0  0
 32 33  2  0  0  0  0
 32 52  1  0  0  0  0
 33 53  1  0  0  0  0
 34 35  2  0  0  0  0
 34 36  2  0  0  0  0
M  CHG  1  10   1
M  END
$$$$
