623
 OpenBabel04041916343D

 48 50  0  0  0  0  0  0  0  0999 V2000
    8.9345   25.1046   20.0157 C   0  0  0  0  0  0  0  0  0  0  0  0
    9.7646   26.1842   19.7441 C   0  0  0  0  0  0  0  0  0  0  0  0
   11.0894   25.9180   19.3555 C   0  0  0  0  0  0  0  0  0  0  0  0
   11.5492   24.6006   19.2521 C   0  0  0  0  0  0  0  0  0  0  0  0
   10.7281   23.5452   19.5111 N   0  0  0  0  0  0  0  0  0  0  0  0
    9.4559   23.8261   19.9146 C   0  0  0  0  0  0  0  0  0  0  0  0
    9.2462   27.5839   19.8635 C   0  0  0  0  0  0  0  0  0  0  0  0
   12.7850   24.2022   18.7672 O   0  0  0  0  0  0  0  0  0  0  0  0
    8.5732   22.8021   20.2389 O   0  0  0  0  0  0  0  0  0  0  0  0
    9.1209   21.5906   20.5547 C   0  0  0  0  0  0  0  0  0  0  0  0
    8.8159   20.5460   19.6972 C   0  0  0  0  0  0  0  0  0  0  0  0
    9.2691   19.2451   19.9476 C   0  0  0  0  0  0  0  0  0  0  0  0
   10.0333   19.0222   21.1047 C   0  0  0  0  0  0  0  0  0  0  0  0
   10.3212   20.0731   21.9853 C   0  0  0  0  0  0  0  0  0  0  0  0
    9.8623   21.3616   21.7071 C   0  0  0  0  0  0  0  0  0  0  0  0
    8.9536   18.1855   18.9888 C   0  0  0  0  0  0  0  0  0  0  0  0
    8.1970   18.4113   17.9317 N   0  0  0  0  0  0  0  0  0  0  0  0
    9.3801   16.9552   19.1494 N   0  0  0  0  0  0  0  0  0  0  0  0
   13.9190   24.9891   18.7544 C   0  0  0  0  0  0  0  0  0  0  0  0
   14.2739   25.8848   19.7508 C   0  0  0  0  0  0  0  0  0  0  0  0
   15.4855   26.5778   19.6827 C   0  0  0  0  0  0  0  0  0  0  0  0
   16.3823   26.3508   18.6342 C   0  0  0  0  0  0  0  0  0  0  0  0
   16.0856   25.4242   17.6212 C   0  0  0  0  0  0  0  0  0  0  0  0
   14.8417   24.7471   17.7120 C   0  0  0  0  0  0  0  0  0  0  0  0
   17.0514   25.1682   16.5153 C   0  0  0  0  0  0  0  0  0  0  0  0
   18.2054   25.7956   16.4127 N   0  0  0  0  0  0  0  0  0  0  0  0
   16.7894   24.2853   15.5703 N   0  0  0  0  0  0  0  0  0  0  0  0
    7.6581   25.2947   20.3810 F   0  0  0  0  0  0  0  0  0  0  0  0
   11.8813   26.9580   19.0640 F   0  0  0  0  0  0  0  0  0  0  0  0
    8.1965   27.5975   20.1794 H   0  0  0  0  0  0  0  0  0  0  0  0
    9.3081   28.1029   18.9015 H   0  0  0  0  0  0  0  0  0  0  0  0
    9.8216   28.1365   20.6123 H   0  0  0  0  0  0  0  0  0  0  0  0
    8.2285   20.7995   18.8239 H   0  0  0  0  0  0  0  0  0  0  0  0
   10.4098   18.0371   21.3652 H   0  0  0  0  0  0  0  0  0  0  0  0
   10.9074   19.8867   22.8845 H   0  0  0  0  0  0  0  0  0  0  0  0
   10.0900   22.1779   22.3855 H   0  0  0  0  0  0  0  0  0  0  0  0
    8.0113   17.6885   17.2521 H   0  0  0  0  0  0  0  0  0  0  0  0
    7.7774   19.3102   17.7487 H   0  0  0  0  0  0  0  0  0  0  0  0
    9.1157   16.2240   18.4988 H   0  0  0  0  0  0  0  0  0  0  0  0
   13.6169   26.0682   20.6011 H   0  0  0  0  0  0  0  0  0  0  0  0
   15.7355   27.2984   20.4617 H   0  0  0  0  0  0  0  0  0  0  0  0
   17.3085   26.9151   18.6454 H   0  0  0  0  0  0  0  0  0  0  0  0
   14.5629   24.0036   16.9736 H   0  0  0  0  0  0  0  0  0  0  0  0
   18.8414   25.6079   15.6507 H   0  0  0  0  0  0  0  0  0  0  0  0
   18.5122   26.5057   17.0707 H   0  0  0  0  0  0  0  0  0  0  0  0
   17.4324   24.1152   14.8105 H   0  0  0  0  0  0  0  0  0  0  0  0
    9.9660   16.6798   19.9214 H   0  0  0  0  0  0  0  0  0  0  0  0
   15.9350   23.7495   15.5640 H   0  0  0  0  0  0  0  0  0  0  0  0
  1  6  2  0  0  0  0
  1  2  1  0  0  0  0
  1 28  1  0  0  0  0
  2  7  1  0  0  0  0
  2  3  2  0  0  0  0
  3  4  1  0  0  0  0
  3 29  1  0  0  0  0
  4  8  1  0  0  0  0
  4  5  2  0  0  0  0
  5  6  1  0  0  0  0
  6  9  1  0  0  0  0
  7 30  1  0  0  0  0
  7 31  1  0  0  0  0
  7 32  1  0  0  0  0
  8 19  1  0  0  0  0
  9 10  1  0  0  0  0
 10 15  2  0  0  0  0
 10 11  1  0  0  0  0
 11 12  2  0  0  0  0
 11 33  1  0  0  0  0
 12 16  1  0  0  0  0
 12 13  1  0  0  0  0
 13 14  2  0  0  0  0
 13 34  1  0  0  0  0
 14 15  1  0  0  0  0
 14 35  1  0  0  0  0
 15 36  1  0  0  0  0
 16 18  2  0  0  0  0
 16 17  1  0  0  0  0
 17 37  1  0  0  0  0
 17 38  1  0  0  0  0
 18 39  1  0  0  0  0
 18 47  1  0  0  0  0
 19 24  2  0  0  0  0
 19 20  1  0  0  0  0
 20 21  2  0  0  0  0
 20 40  1  0  0  0  0
 21 22  1  0  0  0  0
 21 41  1  0  0  0  0
 22 23  2  0  0  0  0
 22 42  1  0  0  0  0
 23 25  1  0  0  0  0
 23 24  1  0  0  0  0
 24 43  1  0  0  0  0
 25 27  2  0  0  0  0
 25 26  1  0  0  0  0
 26 44  1  0  0  0  0
 26 45  1  0  0  0  0
 27 46  1  0  0  0  0
 27 48  1  0  0  0  0
M  END
$$$$
