653
 OpenBabel04041916043D

 51 54  0  0  0  0  0  0  0  0999 V2000
   44.0280   -2.9946   26.2328 C   0  0  0  0  0  0  0  0  0  0  0  0
   44.3430   -1.6160   26.2141 C   0  0  0  0  0  0  0  0  0  0  0  0
   44.2489   -0.7959   27.3243 C   0  0  0  0  0  0  0  0  0  0  0  0
   43.8333   -1.4376   28.4617 C   0  0  0  0  0  0  0  0  0  0  0  0
   43.5114   -2.7782   28.5523 C   0  0  0  0  0  0  0  0  0  0  0  0
   43.5996   -3.5859   27.4226 C   0  0  0  0  0  0  0  0  0  0  0  0
   44.1436   -3.7844   25.0110 C   0  0  0  0  0  0  0  0  0  0  0  0
   43.9341   -5.0972   25.0415 N   0  0  0  0  0  0  0  0  0  0  0  0
   44.4936   -3.2106   23.8814 N   0  0  0  0  0  0  0  0  0  0  0  0
   43.6392   -0.9599   29.7072 N   0  3  0  0  0  0  0  0  0  0  0  0
   43.1396   -3.1191   29.8100 N   0  0  0  0  0  0  0  0  0  0  0  0
   43.2367   -2.0003   30.4958 C   0  0  0  0  0  0  0  0  0  0  0  0
   42.9807   -1.8460   31.9033 C   0  0  0  0  0  0  0  0  0  0  0  0
   42.6350   -2.9925   32.6329 C   0  0  0  0  0  0  0  0  0  0  0  0
   42.3900   -2.9163   33.9989 C   0  0  0  0  0  0  0  0  0  0  0  0
   42.0312   -4.1391   34.7983 C   0  0  0  0  0  0  0  0  0  0  0  0
   40.5632   -4.5372   34.6463 C   0  0  0  0  0  0  0  0  0  0  0  0
   40.3505   -5.9112   35.1888 N   0  3  0  0  0  0  0  0  0  0  0  0
   42.4960   -1.6639   34.6070 C   0  0  0  0  0  0  0  0  0  0  0  0
   42.8541   -0.5000   33.8957 C   0  0  0  0  0  0  0  0  0  0  0  0
   43.1017   -0.6045   32.5318 C   0  0  0  0  0  0  0  0  0  0  0  0
   43.4502    0.4951   31.7818 O   0  0  0  0  0  0  0  0  0  0  0  0
   42.9250    0.7704   34.6052 C   0  0  0  0  0  0  0  0  0  0  0  0
   44.1270    1.4840   34.7002 C   0  0  0  0  0  0  0  0  0  0  0  0
   44.1822    2.6730   35.4208 C   0  0  0  0  0  0  0  0  0  0  0  0
   43.0406    3.1548   36.0577 C   0  0  0  0  0  0  0  0  0  0  0  0
   41.8402    2.4545   35.9691 C   0  0  0  0  0  0  0  0  0  0  0  0
   41.7815    1.2716   35.2408 C   0  0  0  0  0  0  0  0  0  0  0  0
   44.6841   -1.1066   25.3202 H   0  0  0  0  0  0  0  0  0  0  0  0
   44.4847    0.2612   27.3091 H   0  0  0  0  0  0  0  0  0  0  0  0
   43.3276   -4.6299   27.5564 H   0  0  0  0  0  0  0  0  0  0  0  0
   44.0189   -5.6560   24.1956 H   0  0  0  0  0  0  0  0  0  0  0  0
   44.6655   -2.2143   23.8304 H   0  0  0  0  0  0  0  0  0  0  0  0
   44.5932   -3.7201   23.0155 H   0  0  0  0  0  0  0  0  0  0  0  0
   43.7696   -0.0051   30.0203 H   0  0  0  0  0  0  0  0  0  0  0  0
   42.5801   -3.9448   32.1058 H   0  0  0  0  0  0  0  0  0  0  0  0
   42.2493   -3.9537   35.8574 H   0  0  0  0  0  0  0  0  0  0  0  0
   42.6849   -4.9667   34.4951 H   0  0  0  0  0  0  0  0  0  0  0  0
   40.2475   -4.5624   33.5990 H   0  0  0  0  0  0  0  0  0  0  0  0
   39.9024   -3.8666   35.2055 H   0  0  0  0  0  0  0  0  0  0  0  0
   39.3683   -6.2080   35.0979 H   0  0  0  0  0  0  0  0  0  0  0  0
   40.9188   -6.6106   34.6918 H   0  0  0  0  0  0  0  0  0  0  0  0
   42.3115   -1.5695   35.6760 H   0  0  0  0  0  0  0  0  0  0  0  0
   44.1966    0.9349   32.2281 H   0  0  0  0  0  0  0  0  0  0  0  0
   45.0333    1.1113   34.2287 H   0  0  0  0  0  0  0  0  0  0  0  0
   45.1184    3.2188   35.4953 H   0  0  0  0  0  0  0  0  0  0  0  0
   43.0872    4.0796   36.6268 H   0  0  0  0  0  0  0  0  0  0  0  0
   40.9498    2.8275   36.4663 H   0  0  0  0  0  0  0  0  0  0  0  0
   40.8380    0.7347   35.1698 H   0  0  0  0  0  0  0  0  0  0  0  0
   43.6818   -5.5851   25.8743 H   0  0  0  0  0  0  0  0  0  0  0  0
   40.5887   -5.9744   36.1884 H   0  0  0  0  0  0  0  0  0  0  0  0
  1  2  2  0  0  0  0
  1  6  1  0  0  0  0
  1  7  1  0  0  0  0
  2  3  1  0  0  0  0
  2 29  1  0  0  0  0
  3  4  2  0  0  0  0
  3 30  1  0  0  0  0
  4  5  1  0  0  0  0
  4 10  1  0  0  0  0
  5  6  2  0  0  0  0
  5 11  1  0  0  0  0
  6 31  1  0  0  0  0
  7  8  2  0  0  0  0
  7  9  1  0  0  0  0
  8 32  1  0  0  0  0
  8 50  1  0  0  0  0
  9 33  1  0  0  0  0
  9 34  1  0  0  0  0
 10 12  2  0  0  0  0
 10 35  1  0  0  0  0
 11 12  1  0  0  0  0
 12 13  1  0  0  0  0
 13 14  2  0  0  0  0
 13 21  1  0  0  0  0
 14 15  1  0  0  0  0
 14 36  1  0  0  0  0
 15 16  1  0  0  0  0
 15 19  2  0  0  0  0
 16 17  1  0  0  0  0
 16 37  1  0  0  0  0
 16 38  1  0  0  0  0
 17 18  1  0  0  0  0
 17 39  1  0  0  0  0
 17 40  1  0  0  0  0
 18 41  1  0  0  0  0
 18 42  1  0  0  0  0
 18 51  1  0  0  0  0
 19 20  1  0  0  0  0
 19 43  1  0  0  0  0
 20 21  2  0  0  0  0
 20 23  1  0  0  0  0
 21 22  1  0  0  0  0
 22 44  1  0  0  0  0
 23 24  2  0  0  0  0
 23 28  1  0  0  0  0
 24 25  1  0  0  0  0
 24 45  1  0  0  0  0
 25 26  2  0  0  0  0
 25 46  1  0  0  0  0
 26 27  1  0  0  0  0
 26 47  1  0  0  0  0
 27 28  2  0  0  0  0
 27 48  1  0  0  0  0
 28 49  1  0  0  0  0
M  CHG  2  10   1  18   1
M  END
$$$$
