675
 OpenBabel04041916153D

 38 40  0  0  0  0  0  0  0  0999 V2000
   16.9342   19.5075   33.7594 N   0  0  0  0  0  0  0  0  0  0  0  0
   18.2228   19.7342   33.9124 C   0  0  0  0  0  0  0  0  0  0  0  0
   18.6218   20.8935   34.3976 N   0  0  0  0  0  0  0  0  0  0  0  0
   19.1987   18.6776   33.5432 C   0  0  0  0  0  0  0  0  0  0  0  0
   18.8814   17.6749   32.6105 C   0  0  0  0  0  0  0  0  0  0  0  0
   19.7820   16.6442   32.3000 C   0  0  0  0  0  0  0  0  0  0  0  0
   21.0554   16.6074   32.8812 C   0  0  0  0  0  0  0  0  0  0  0  0
   21.9921   15.5967   32.5675 C   0  0  0  0  0  0  0  0  0  0  0  0
   23.2684   15.6190   33.1455 C   0  0  0  0  0  0  0  0  0  0  0  0
   23.6025   16.6391   34.0391 C   0  0  0  0  0  0  0  0  0  0  0  0
   22.6768   17.6261   34.3683 C   0  0  0  0  0  0  0  0  0  0  0  0
   21.3969   17.6253   33.7980 C   0  0  0  0  0  0  0  0  0  0  0  0
   20.4736   18.6293   34.1281 C   0  0  0  0  0  0  0  0  0  0  0  0
   24.3101   14.5929   32.8390 C   0  0  0  0  0  0  0  0  0  0  0  0
   25.1167   14.3014   33.7193 O   0  0  0  0  0  0  0  0  0  0  0  0
   24.3479   14.1711   31.5278 N   0  0  0  0  0  0  0  0  0  0  0  0
   25.3687   13.3612   30.9868 C   0  0  0  0  0  0  0  0  0  0  0  0
   25.7869   13.6470   29.6821 C   0  0  0  0  0  0  0  0  0  0  0  0
   26.7500   12.8530   29.0608 C   0  0  0  0  0  0  0  0  0  0  0  0
   27.2824   11.7540   29.7307 C   0  0  0  0  0  0  0  0  0  0  0  0
   26.8817   11.4748   31.0377 C   0  0  0  0  0  0  0  0  0  0  0  0
   25.9380   12.2883   31.6735 C   0  0  0  0  0  0  0  0  0  0  0  0
   16.5960   18.6150   33.4233 H   0  0  0  0  0  0  0  0  0  0  0  0
   19.6066   21.1050   34.5137 H   0  0  0  0  0  0  0  0  0  0  0  0
   17.9767   21.6265   34.6562 H   0  0  0  0  0  0  0  0  0  0  0  0
   17.9307   17.6710   32.0829 H   0  0  0  0  0  0  0  0  0  0  0  0
   19.4817   15.8771   31.5857 H   0  0  0  0  0  0  0  0  0  0  0  0
   21.7190   14.7924   31.8925 H   0  0  0  0  0  0  0  0  0  0  0  0
   24.5923   16.6720   34.4860 H   0  0  0  0  0  0  0  0  0  0  0  0
   22.9743   18.4004   35.0743 H   0  0  0  0  0  0  0  0  0  0  0  0
   20.7737   19.3652   34.8710 H   0  0  0  0  0  0  0  0  0  0  0  0
   23.8000   14.6864   30.8520 H   0  0  0  0  0  0  0  0  0  0  0  0
   25.4127   14.5230   29.1607 H   0  0  0  0  0  0  0  0  0  0  0  0
   27.0885   13.0960   28.0560 H   0  0  0  0  0  0  0  0  0  0  0  0
   28.0142   11.1194   29.2368 H   0  0  0  0  0  0  0  0  0  0  0  0
   27.3037   10.6198   31.5613 H   0  0  0  0  0  0  0  0  0  0  0  0
   25.6299   12.0435   32.6859 H   0  0  0  0  0  0  0  0  0  0  0  0
   16.2304   20.1909   34.0124 H   0  0  0  0  0  0  0  0  0  0  0  0
  1  2  2  0  0  0  0
  1 23  1  0  0  0  0
  1 38  1  0  0  0  0
  2  3  1  0  0  0  0
  2  4  1  0  0  0  0
  3 24  1  0  0  0  0
  3 25  1  0  0  0  0
  4  5  2  0  0  0  0
  4 13  1  0  0  0  0
  5  6  1  0  0  0  0
  5 26  1  0  0  0  0
  6  7  2  0  0  0  0
  6 27  1  0  0  0  0
  7  8  1  0  0  0  0
  7 12  1  0  0  0  0
  8  9  2  0  0  0  0
  8 28  1  0  0  0  0
  9 10  1  0  0  0  0
  9 14  1  0  0  0  0
 10 11  2  0  0  0  0
 10 29  1  0  0  0  0
 11 12  1  0  0  0  0
 11 30  1  0  0  0  0
 12 13  2  0  0  0  0
 13 31  1  0  0  0  0
 14 15  2  0  0  0  0
 14 16  1  0  0  0  0
 16 17  1  0  0  0  0
 16 32  1  0  0  0  0
 17 18  2  0  0  0  0
 17 22  1  0  0  0  0
 18 19  1  0  0  0  0
 18 33  1  0  0  0  0
 19 20  2  0  0  0  0
 19 34  1  0  0  0  0
 20 21  1  0  0  0  0
 20 35  1  0  0  0  0
 21 22  2  0  0  0  0
 21 36  1  0  0  0  0
 22 37  1  0  0  0  0
M  END
$$$$
