678
 OpenBabel04041916063D

 38 40  0  0  1  0  0  0  0  0999 V2000
   43.9716   -2.9464   26.0927 C   0  0  2  0  0  0  0  0  0  0  0  0
   44.2669   -1.5718   26.1859 C   0  0  0  0  0  0  0  0  0  0  0  0
   44.1462   -0.8410   27.3502 C   0  0  0  0  0  0  0  0  0  0  0  0
   43.7040   -1.5420   28.4523 C   0  0  1  0  0  0  0  0  0  0  0  0
   43.3969   -2.8879   28.4349 C   0  0  1  0  0  0  0  0  0  0  0  0
   43.5297   -3.6104   27.2486 C   0  0  0  0  0  0  0  0  0  0  0  0
   44.1193   -3.6663   24.8320 C   0  0  0  0  0  0  0  0  0  0  0  0
   43.8255   -4.9444   24.7320 N   0  0  0  0  0  0  0  0  0  0  0  0
   44.5561   -3.0569   23.7476 N   0  0  0  0  0  0  0  0  0  0  0  0
   43.4967   -1.0982   29.7149 N   0  3  0  0  0  0  0  0  0  0  0  0
   42.9993   -3.2307   29.7375 C   0  0  0  0  0  0  0  0  0  0  0  0
   43.1003   -2.1181   30.5393 C   0  0  1  0  0  0  0  0  0  0  0  0
   42.8988   -1.9434   31.9772 C   0  0  1  0  0  0  0  0  0  0  0  0
   42.6396   -3.0596   32.7974 C   0  0  0  0  0  0  0  0  0  0  0  0
   42.4857   -2.9594   34.1952 C   0  0  2  0  0  0  0  0  0  0  0  0
   42.1888   -4.2193   34.9923 C   0  0  0  0  0  0  0  0  0  0  0  0
   42.0965   -4.0791   36.5148 C   0  0  0  0  0  0  0  0  0  0  0  0
   41.0039   -3.5807   36.9339 O   0  0  0  0  0  0  0  0  0  0  0  0
   43.0904   -4.4927   37.1693 O   0  0  0  0  0  0  0  0  0  0  0  0
   42.6036   -1.6857   34.7678 C   0  0  0  0  0  0  0  0  0  0  0  0
   42.8671   -0.5652   33.9617 C   0  0  1  0  0  0  0  0  0  0  0  0
   43.0083   -0.6905   32.5815 C   0  0  1  0  0  0  0  0  0  0  0  0
   43.2637    0.4192   31.8016 O   0  0  0  0  0  0  0  0  0  0  0  0
   43.0164    1.1489   34.7491 Br  0  0  0  0  0  0  0  0  0  0  0  0
   44.6051   -1.0155   25.3205 H   0  0  0  0  0  0  0  0  0  0  0  0
   44.3696    0.2185   27.4156 H   0  0  0  0  0  0  0  0  0  0  0  0
   43.2756   -4.6583   27.2859 H   0  0  0  0  0  0  0  0  0  0  0  0
   43.9263   -5.4442   23.8667 H   0  0  0  0  0  0  0  0  0  0  0  0
   44.7992   -2.0727   23.7723 H   0  0  0  0  0  0  0  0  0  0  0  0
   44.6616   -3.5389   22.8827 H   0  0  0  0  0  0  0  0  0  0  0  0
   43.6403   -0.1435   30.0203 H   0  0  0  0  0  0  0  0  0  0  0  0
   42.6998   -4.2237   30.0566 H   0  0  0  0  0  0  0  0  0  0  0  0
   42.5592   -4.0441   32.3453 H   0  0  0  0  0  0  0  0  0  0  0  0
   42.9594   -4.9682   34.7715 H   0  0  0  0  0  0  0  0  0  0  0  0
   41.2288   -4.6342   34.6444 H   0  0  0  0  0  0  0  0  0  0  0  0
   42.4844   -1.5548   35.8419 H   0  0  0  0  0  0  0  0  0  0  0  0
   44.0319    0.8542   32.2120 H   0  0  0  0  0  0  0  0  0  0  0  0
   43.4874   -5.4651   25.5238 H   0  0  0  0  0  0  0  0  0  0  0  0
  1  2  1  0  0  0  0
  1  6  1  0  0  0  0
  1  7  1  1  0  0  0
  2  3  1  0  0  0  0
  2 25  1  0  0  0  0
  3 26  1  0  0  0  0
  4  3  1  1  0  0  0
  4  5  1  0  0  0  0
  4 10  1  0  0  0  0
  5  6  1  1  0  0  0
  5 11  1  0  0  0  0
  6 27  1  0  0  0  0
  7  8  2  0  0  0  0
  7  9  1  0  0  0  0
  8 28  1  0  0  0  0
  8 38  1  0  0  0  0
  9 29  1  0  0  0  0
  9 30  1  0  0  0  0
 10 31  1  0  0  0  0
 11 12  1  0  0  0  0
 11 32  1  0  0  0  0
 12 10  1  1  0  0  0
 12 13  1  0  0  0  0
 13 14  1  1  0  0  0
 13 22  1  0  0  0  0
 14 15  1  0  0  0  0
 14 33  1  0  0  0  0
 15 16  1  6  0  0  0
 15 20  1  0  0  0  0
 16 17  1  0  0  0  0
 16 34  1  0  0  0  0
 16 35  1  0  0  0  0
 17 18  2  0  0  0  0
 17 19  1  0  0  0  0
 20 21  1  0  0  0  0
 20 36  1  0  0  0  0
 21 22  1  0  0  0  0
 21 24  1  6  0  0  0
 22 23  1  1  0  0  0
 23 37  1  0  0  0  0
M  CHG  1  10   1
M  END
$$$$
