688
 OpenBabel04041916353D

 49 52  0  0  0  0  0  0  0  0999 V2000
    8.4547   25.0502   19.8307 C   0  0  0  0  0  0  0  0  0  0  0  0
    9.2724   26.1362   19.5275 C   0  0  0  0  0  0  0  0  0  0  0  0
   10.6174   25.8856   19.2329 C   0  0  0  0  0  0  0  0  0  0  0  0
   11.0868   24.5783   19.2225 C   0  0  0  0  0  0  0  0  0  0  0  0
   10.2973   23.5176   19.5024 N   0  0  0  0  0  0  0  0  0  0  0  0
    9.0150   23.7884   19.8364 C   0  0  0  0  0  0  0  0  0  0  0  0
   12.3556   24.1966   18.8614 O   0  0  0  0  0  0  0  0  0  0  0  0
    8.1691   22.7490   20.2000 O   0  0  0  0  0  0  0  0  0  0  0  0
    8.7254   27.5378   19.5229 C   0  0  0  0  0  0  0  0  0  0  0  0
    9.5649   28.4776   19.3837 O   0  0  0  0  0  0  0  0  0  0  0  0
    7.4689   27.6551   19.6563 O   0  0  0  0  0  0  0  0  0  0  0  0
    8.7705   21.5513   20.4917 C   0  0  0  0  0  0  0  0  0  0  0  0
    8.5328   20.4988   19.6058 C   0  0  0  0  0  0  0  0  0  0  0  0
    9.0148   19.2032   19.8597 C   0  0  0  0  0  0  0  0  0  0  0  0
    9.7533   19.0165   21.0493 C   0  0  0  0  0  0  0  0  0  0  0  0
   10.0124   20.0755   21.9272 C   0  0  0  0  0  0  0  0  0  0  0  0
    9.5146   21.3391   21.6481 C   0  0  0  0  0  0  0  0  0  0  0  0
    8.7648   18.0881   18.9157 C   0  0  0  0  0  0  0  0  0  0  0  0
    7.9810   18.2473   17.8612 N   0  0  0  0  0  0  0  0  0  0  0  0
    9.3237   16.9075   19.0975 N   0  0  0  0  0  0  0  0  0  0  0  0
    9.7526   22.3438   22.5343 O   0  0  0  0  0  0  0  0  0  0  0  0
   13.3988   25.0849   18.8483 C   0  0  0  0  0  0  0  0  0  0  0  0
   13.6208   26.0557   19.8212 C   0  0  0  0  0  0  0  0  0  0  0  0
   14.7445   26.8757   19.7418 C   0  0  0  0  0  0  0  0  0  0  0  0
   15.6855   26.6879   18.7248 C   0  0  0  0  0  0  0  0  0  0  0  0
   15.5082   25.6715   17.7767 C   0  0  0  0  0  0  0  0  0  0  0  0
   14.3451   24.8902   17.8412 C   0  0  0  0  0  0  0  0  0  0  0  0
   16.5107   25.3313   16.7645 C   0  0  0  0  0  0  0  0  0  0  0  0
   17.5439   26.1435   16.3544 N   0  3  0  0  0  0  0  0  0  0  0  0
   16.5882   24.1679   16.1392 N   0  0  0  0  0  0  0  0  0  0  0  0
   17.6763   24.2408   15.3166 C   0  0  0  0  0  0  0  0  0  0  0  0
   18.2263   25.4963   15.3593 C   0  0  0  0  0  0  0  0  0  0  0  0
    7.4102   25.2082   20.0812 H   0  0  0  0  0  0  0  0  0  0  0  0
   11.2546   26.7376   19.0197 H   0  0  0  0  0  0  0  0  0  0  0  0
    7.9662   20.7506   18.7152 H   0  0  0  0  0  0  0  0  0  0  0  0
   10.1510   18.0493   21.3401 H   0  0  0  0  0  0  0  0  0  0  0  0
   10.5838   19.9059   22.8361 H   0  0  0  0  0  0  0  0  0  0  0  0
    7.8247   17.5037   17.1875 H   0  0  0  0  0  0  0  0  0  0  0  0
    7.5316   19.1228   17.6674 H   0  0  0  0  0  0  0  0  0  0  0  0
    9.1690   16.1378   18.4586 H   0  0  0  0  0  0  0  0  0  0  0  0
   10.7190   22.4689   22.5639 H   0  0  0  0  0  0  0  0  0  0  0  0
   12.9176   26.2034   20.6367 H   0  0  0  0  0  0  0  0  0  0  0  0
   14.8860   27.6538   20.4884 H   0  0  0  0  0  0  0  0  0  0  0  0
   16.5631   27.3257   18.7183 H   0  0  0  0  0  0  0  0  0  0  0  0
   14.1857   24.1047   17.1035 H   0  0  0  0  0  0  0  0  0  0  0  0
   17.7622   27.0542   16.7312 H   0  0  0  0  0  0  0  0  0  0  0  0
   17.9935   23.3854   14.7356 H   0  0  0  0  0  0  0  0  0  0  0  0
   19.0440   25.9533   14.8217 H   0  0  0  0  0  0  0  0  0  0  0  0
    9.9437   16.7133   19.8717 H   0  0  0  0  0  0  0  0  0  0  0  0
  1  6  2  0  0  0  0
  1  2  1  0  0  0  0
  1 33  1  0  0  0  0
  2  9  1  0  0  0  0
  2  3  2  0  0  0  0
  3  4  1  0  0  0  0
  3 34  1  0  0  0  0
  4  7  1  0  0  0  0
  4  5  2  0  0  0  0
  5  6  1  0  0  0  0
  6  8  1  0  0  0  0
  7 22  1  0  0  0  0
  8 12  1  0  0  0  0
  9 11  2  0  0  0  0
  9 10  1  0  0  0  0
 12 17  2  0  0  0  0
 12 13  1  0  0  0  0
 13 14  2  0  0  0  0
 13 35  1  0  0  0  0
 14 18  1  0  0  0  0
 14 15  1  0  0  0  0
 15 16  2  0  0  0  0
 15 36  1  0  0  0  0
 16 17  1  0  0  0  0
 16 37  1  0  0  0  0
 17 21  1  0  0  0  0
 18 20  2  0  0  0  0
 18 19  1  0  0  0  0
 19 38  1  0  0  0  0
 19 39  1  0  0  0  0
 20 40  1  0  0  0  0
 20 49  1  0  0  0  0
 21 41  1  0  0  0  0
 22 27  2  0  0  0  0
 22 23  1  0  0  0  0
 23 24  2  0  0  0  0
 23 42  1  0  0  0  0
 24 25  1  0  0  0  0
 24 43  1  0  0  0  0
 25 26  2  0  0  0  0
 25 44  1  0  0  0  0
 26 28  1  0  0  0  0
 26 27  1  0  0  0  0
 27 45  1  0  0  0  0
 28 30  1  0  0  0  0
 28 29  2  0  0  0  0
 29 32  1  0  0  0  0
 29 46  1  0  0  0  0
 30 31  1  0  0  0  0
 31 32  2  0  0  0  0
 31 47  1  0  0  0  0
 32 48  1  0  0  0  0
M  CHG  1  29   1
M  END
$$$$
