693
 OpenBabel04041916043D

 52 55  0  0  1  0  0  0  0  0999 V2000
   44.0026   -3.1329   25.9363 C   0  0  0  0  0  0  0  0  0  0  0  0
   44.1655   -1.7199   25.8795 C   0  0  0  0  0  0  0  0  0  0  0  0
   44.0315   -0.9086   26.9876 C   0  0  0  0  0  0  0  0  0  0  0  0
   43.7016   -1.5763   28.1482 C   0  0  0  0  0  0  0  0  0  0  0  0
   43.5234   -2.9334   28.2856 C   0  0  0  0  0  0  0  0  0  0  0  0
   43.6717   -3.7402   27.1660 C   0  0  0  0  0  0  0  0  0  0  0  0
   44.1602   -3.9450   24.7280 C   0  0  0  0  0  0  0  0  0  0  0  0
   43.8205   -5.2110   24.7087 N   0  0  0  0  0  0  0  0  0  0  0  0
   44.6795   -3.4110   23.6175 N   0  0  0  0  0  0  0  0  0  0  0  0
   43.4671   -1.0915   29.3834 N   0  3  0  0  0  0  0  0  0  0  0  0
   43.2347   -3.2548   29.5736 N   0  0  0  0  0  0  0  0  0  0  0  0
   43.2127   -2.1162   30.2482 C   0  0  0  0  0  0  0  0  0  0  0  0
   42.9901   -1.9421   31.6832 C   0  0  0  0  0  0  0  0  0  0  0  0
   42.6990   -3.0982   32.4404 C   0  0  0  0  0  0  0  0  0  0  0  0
   42.4698   -3.0480   33.8211 C   0  0  0  0  0  0  0  0  0  0  0  0
   42.0679   -4.3163   34.5927 C   0  0  2  0  0  0  0  0  0  0  0  0
   40.5506   -4.5132   34.2797 C   0  0  0  0  0  0  0  0  0  0  0  0
   40.2856   -5.3277   33.3396 O   0  0  0  0  0  0  0  0  0  0  0  0
   39.7379   -3.7565   34.8979 O   0  0  0  0  0  0  0  0  0  0  0  0
   42.3873   -4.2609   36.1084 C   0  0  0  0  0  0  0  0  0  0  0  0
   43.0952   -5.4523   36.7433 C   0  0  0  0  0  0  0  0  0  0  0  0
   42.9739   -6.5785   36.1890 O   0  0  0  0  0  0  0  0  0  0  0  0
   43.7700   -5.1631   37.7854 O   0  0  0  0  0  0  0  0  0  0  0  0
   42.5518   -1.8005   34.4511 C   0  0  0  0  0  0  0  0  0  0  0  0
   42.8870   -0.6495   33.7402 C   0  0  0  0  0  0  0  0  0  0  0  0
   43.0418   -0.7094   32.3622 C   0  0  0  0  0  0  0  0  0  0  0  0
   43.1427    0.5398   31.7861 O   0  0  0  0  0  0  0  0  0  0  0  0
   43.0641    0.6139   34.4537 C   0  0  0  0  0  0  0  0  0  0  0  0
   44.2936    1.2934   34.4207 C   0  0  0  0  0  0  0  0  0  0  0  0
   44.4687    2.4943   35.0922 C   0  0  0  0  0  0  0  0  0  0  0  0
   43.4080    3.0243   35.8086 C   0  0  0  0  0  0  0  0  0  0  0  0
   42.1699    2.3876   35.8375 C   0  0  0  0  0  0  0  0  0  0  0  0
   41.9963    1.1849   35.1567 C   0  0  0  0  0  0  0  0  0  0  0  0
   45.3287    0.8070   33.7117 F   0  0  0  0  0  0  0  0  0  0  0  0
   44.4006   -1.1920   24.9589 H   0  0  0  0  0  0  0  0  0  0  0  0
   44.1690    0.1649   26.9640 H   0  0  0  0  0  0  0  0  0  0  0  0
   43.5354   -4.8026   27.3216 H   0  0  0  0  0  0  0  0  0  0  0  0
   43.9317   -5.8031   23.9027 H   0  0  0  0  0  0  0  0  0  0  0  0
   44.9697   -2.4532   23.6072 H   0  0  0  0  0  0  0  0  0  0  0  0
   44.7904   -3.9330   22.7882 H   0  0  0  0  0  0  0  0  0  0  0  0
   43.4851   -0.1136   29.5579 H   0  0  0  0  0  0  0  0  0  0  0  0
   42.5992   -4.0664   31.9432 H   0  0  0  0  0  0  0  0  0  0  0  0
   42.6276   -5.1474   34.1467 H   0  0  0  0  0  0  0  0  0  0  0  0
   41.4715   -4.0977   36.6883 H   0  0  0  0  0  0  0  0  0  0  0  0
   43.0535   -3.4236   36.3348 H   0  0  0  0  0  0  0  0  0  0  0  0
   42.3329   -1.7196   35.5133 H   0  0  0  0  0  0  0  0  0  0  0  0
   43.6828    0.5637   31.0003 H   0  0  0  0  0  0  0  0  0  0  0  0
   45.4349    2.9833   35.0532 H   0  0  0  0  0  0  0  0  0  0  0  0
   43.5424    3.9588   36.3641 H   0  0  0  0  0  0  0  0  0  0  0  0
   41.3367    2.7998   36.3938 H   0  0  0  0  0  0  0  0  0  0  0  0
   41.0311    0.6799   35.1622 H   0  0  0  0  0  0  0  0  0  0  0  0
   43.4211   -5.6608   25.5377 H   0  0  0  0  0  0  0  0  0  0  0  0
  1  2  2  0  0  0  0
  1  6  1  0  0  0  0
  1  7  1  0  0  0  0
  2  3  1  0  0  0  0
  2 35  1  0  0  0  0
  3  4  2  0  0  0  0
  3 36  1  0  0  0  0
  4  5  1  0  0  0  0
  4 10  1  0  0  0  0
  5  6  2  0  0  0  0
  5 11  1  0  0  0  0
  6 37  1  0  0  0  0
  7  8  2  0  0  0  0
  7  9  1  0  0  0  0
  8 38  1  0  0  0  0
  8 52  1  0  0  0  0
  9 39  1  0  0  0  0
  9 40  1  0  0  0  0
 10 12  2  0  0  0  0
 10 41  1  0  0  0  0
 11 12  1  0  0  0  0
 12 13  1  0  0  0  0
 13 14  2  0  0  0  0
 13 26  1  0  0  0  0
 14 15  1  0  0  0  0
 14 42  1  0  0  0  0
 15 16  1  0  0  0  0
 15 24  2  0  0  0  0
 16 17  1  0  0  0  0
 16 20  1  0  0  0  0
 16 43  1  6  0  0  0
 17 18  2  0  0  0  0
 17 19  1  0  0  0  0
 20 21  1  0  0  0  0
 20 44  1  0  0  0  0
 20 45  1  0  0  0  0
 21 22  2  0  0  0  0
 21 23  1  0  0  0  0
 24 25  1  0  0  0  0
 24 46  1  0  0  0  0
 25 26  2  0  0  0  0
 25 28  1  0  0  0  0
 26 27  1  0  0  0  0
 27 47  1  0  0  0  0
 28 29  2  0  0  0  0
 28 33  1  0  0  0  0
 29 30  1  0  0  0  0
 29 34  1  0  0  0  0
 30 31  2  0  0  0  0
 30 48  1  0  0  0  0
 31 32  1  0  0  0  0
 31 49  1  0  0  0  0
 32 33  2  0  0  0  0
 32 50  1  0  0  0  0
 33 51  1  0  0  0  0
M  CHG  1  10   1
M  END
$$$$
