696
 OpenBabel04041916053D

 43 46  0  0  1  0  0  0  0  0999 V2000
   44.2719   -3.0690   26.5454 C   0  0  2  0  0  0  0  0  0  0  0  0
   44.6198   -1.6994   26.5418 C   0  0  0  0  0  0  0  0  0  0  0  0
   44.6117   -0.9052   27.6640 C   0  0  0  0  0  0  0  0  0  0  0  0
   44.2516   -1.5744   28.8068 C   0  0  1  0  0  0  0  0  0  0  0  0
   43.8735   -2.8929   28.8832 C   0  0  1  0  0  0  0  0  0  0  0  0
   43.8774   -3.6750   27.7478 C   0  0  0  0  0  0  0  0  0  0  0  0
   44.3196   -3.8602   25.3242 C   0  0  0  0  0  0  0  0  0  0  0  0
   44.0343   -5.1516   25.3663 N   0  0  0  0  0  0  0  0  0  0  0  0
   44.6404   -3.2783   24.1945 N   0  0  0  0  0  0  0  0  0  0  0  0
   44.2631   -1.1010   30.0698 N   0  3  0  0  0  0  0  0  0  0  0  0
   43.5507   -3.1847   30.2073 C   0  0  0  0  0  0  0  0  0  0  0  0
   43.7477   -2.0289   30.9236 C   0  0  1  0  0  0  0  0  0  0  0  0
   43.5074   -1.8166   32.3275 C   0  0  2  0  0  0  0  0  0  0  0  0
   43.2523   -2.9558   33.1059 C   0  0  0  0  0  0  0  0  0  0  0  0
   42.9737   -2.8401   34.4505 C   0  0  0  0  0  0  0  0  0  0  0  0
   42.9496   -1.5773   35.0181 C   0  0  0  0  0  0  0  0  0  0  0  0
   43.1995   -0.4186   34.2640 C   0  0  1  0  0  0  0  0  0  0  0  0
   43.4894   -0.5495   32.9093 C   0  0  1  0  0  0  0  0  0  0  0  0
   43.7506    0.5984   32.2009 O   0  0  0  0  0  0  0  0  0  0  0  0
   43.1371    0.8960   34.8959 C   0  0  0  0  0  0  0  0  0  0  0  0
   44.1575    1.8367   34.6942 C   0  0  0  0  0  0  0  0  0  0  0  0
   44.0827    3.0903   35.2932 C   0  0  0  0  0  0  0  0  0  0  0  0
   42.9952    3.4070   36.1066 C   0  0  0  0  0  0  0  0  0  0  0  0
   41.9741    2.4890   36.3009 C   0  0  0  0  0  0  0  0  0  0  0  0
   42.0286    1.2414   35.6956 C   0  0  0  0  0  0  0  0  0  0  0  0
   44.9421   -1.1714   25.6432 H   0  0  0  0  0  0  0  0  0  0  0  0
   44.8925    0.1426   27.6690 H   0  0  0  0  0  0  0  0  0  0  0  0
   43.5895   -4.7081   27.8829 H   0  0  0  0  0  0  0  0  0  0  0  0
   44.0567   -5.7295   24.5205 H   0  0  0  0  0  0  0  0  0  0  0  0
   44.8564   -2.2972   24.1536 H   0  0  0  0  0  0  0  0  0  0  0  0
   44.6908   -3.7816   23.3229 H   0  0  0  0  0  0  0  0  0  0  0  0
   44.6259   -0.1817   30.2732 H   0  0  0  0  0  0  0  0  0  0  0  0
   43.2107   -4.1373   30.5890 H   0  0  0  0  0  0  0  0  0  0  0  0
   43.2647   -3.9546   32.6806 H   0  0  0  0  0  0  0  0  0  0  0  0
   42.7779   -3.7282   35.0374 H   0  0  0  0  0  0  0  0  0  0  0  0
   42.7382   -1.4936   36.0808 H   0  0  0  0  0  0  0  0  0  0  0  0
   43.4149    0.5147   31.3022 H   0  0  0  0  0  0  0  0  0  0  0  0
   44.9950    1.6137   34.0432 H   0  0  0  0  0  0  0  0  0  0  0  0
   44.8749    3.8101   35.1154 H   0  0  0  0  0  0  0  0  0  0  0  0
   42.9542    4.3798   36.5812 H   0  0  0  0  0  0  0  0  0  0  0  0
   41.1168    2.7446   36.9275 H   0  0  0  0  0  0  0  0  0  0  0  0
   41.2163    0.5369   35.8281 H   0  0  0  0  0  0  0  0  0  0  0  0
   43.7920   -5.6240   26.2118 H   0  0  0  0  0  0  0  0  0  0  0  0
  1  2  1  0  0  0  0
  1  6  1  0  0  0  0
  1  7  1  1  0  0  0
  2  3  1  0  0  0  0
  2 26  1  0  0  0  0
  3 27  1  0  0  0  0
  4  3  1  1  0  0  0
  4  5  1  0  0  0  0
  4 10  1  0  0  0  0
  5  6  1  1  0  0  0
  5 11  1  0  0  0  0
  6 28  1  0  0  0  0
  7  8  2  0  0  0  0
  7  9  1  0  0  0  0
  8 29  1  0  0  0  0
  8 43  1  0  0  0  0
  9 30  1  0  0  0  0
  9 31  1  0  0  0  0
 10 32  1  0  0  0  0
 11 12  1  0  0  0  0
 11 33  1  0  0  0  0
 12 10  1  1  0  0  0
 12 13  1  0  0  0  0
 13 14  1  6  0  0  0
 13 18  1  0  0  0  0
 14 15  1  0  0  0  0
 14 34  1  0  0  0  0
 15 16  1  0  0  0  0
 15 35  1  0  0  0  0
 16 17  1  0  0  0  0
 16 36  1  0  0  0  0
 17 18  1  0  0  0  0
 17 20  1  6  0  0  0
 18 19  1  1  0  0  0
 19 37  1  0  0  0  0
 20 21  1  0  0  0  0
 20 25  1  0  0  0  0
 21 22  1  0  0  0  0
 21 38  1  0  0  0  0
 22 23  1  0  0  0  0
 22 39  1  0  0  0  0
 23 24  1  0  0  0  0
 23 40  1  0  0  0  0
 24 25  1  0  0  0  0
 24 41  1  0  0  0  0
 25 42  1  0  0  0  0
M  CHG  1  10   1
M  END
$$$$
