696
 OpenBabel04041916063D

 43 46  0  0  1  0  0  0  0  0999 V2000
    8.8526    1.4206   24.7133 C   0  0  2  0  0  0  0  0  0  0  0  0
    9.5739    1.2623   23.5216 C   0  0  0  0  0  0  0  0  0  0  0  0
   10.1697    2.3283   22.8607 C   0  0  0  0  0  0  0  0  0  0  0  0
    9.9953    3.5372   23.4689 C   0  0  1  0  0  0  0  0  0  0  0  0
    9.3019    3.7419   24.6307 C   0  0  1  0  0  0  0  0  0  0  0  0
    8.7128    2.6806   25.2690 C   0  0  0  0  0  0  0  0  0  0  0  0
    8.2427    0.2940   25.4038 C   0  0  0  0  0  0  0  0  0  0  0  0
    7.8642    0.4135   26.6521 N   0  0  0  0  0  0  0  0  0  0  0  0
    8.0645   -0.8454   24.7950 N   0  0  0  0  0  0  0  0  0  0  0  0
   10.4672    4.7418   23.1118 N   0  3  0  0  0  0  0  0  0  0  0  0
    9.3553    5.0877   24.9568 C   0  0  0  0  0  0  0  0  0  0  0  0
   10.0690    5.7090   23.9793 C   0  0  2  0  0  0  0  0  0  0  0  0
   10.3029    7.1029   23.8015 C   0  0  2  0  0  0  0  0  0  0  0  0
    9.9065    7.9522   24.8408 C   0  0  0  0  0  0  0  0  0  0  0  0
   10.0773    9.3102   24.7287 C   0  0  0  0  0  0  0  0  0  0  0  0
   10.6409    9.8233   23.5832 C   0  0  0  0  0  0  0  0  0  0  0  0
   11.0423    8.9863   22.5446 C   0  0  2  0  0  0  0  0  0  0  0  0
   10.8696    7.6605   22.6986 C   0  0  2  0  0  0  0  0  0  0  0  0
   11.2856    6.8423   21.6028 O   0  0  0  0  0  0  0  0  0  0  0  0
   11.7075    9.6283   21.4272 C   0  0  0  0  0  0  0  0  0  0  0  0
   12.9324    9.1539   20.9673 C   0  0  0  0  0  0  0  0  0  0  0  0
   13.6181    9.8323   19.9813 C   0  0  0  0  0  0  0  0  0  0  0  0
   13.0875   10.9981   19.4446 C   0  0  0  0  0  0  0  0  0  0  0  0
   11.8650   11.4722   19.8978 C   0  0  0  0  0  0  0  0  0  0  0  0
   11.1731   10.7933   20.8806 C   0  0  0  0  0  0  0  0  0  0  0  0
    9.6942    0.2775   23.0770 H   0  0  0  0  0  0  0  0  0  0  0  0
   10.7336    2.2291   21.9454 H   0  0  0  0  0  0  0  0  0  0  0  0
    8.1661    2.8751   26.1823 H   0  0  0  0  0  0  0  0  0  0  0  0
    7.4454   -0.3611   27.1362 H   0  0  0  0  0  0  0  0  0  0  0  0
    8.3442   -0.9480   23.8314 H   0  0  0  0  0  0  0  0  0  0  0  0
    7.6433   -1.6151   25.2824 H   0  0  0  0  0  0  0  0  0  0  0  0
   11.0671    4.7257   22.3100 H   0  0  0  0  0  0  0  0  0  0  0  0
    8.8933    5.5338   25.8140 H   0  0  0  0  0  0  0  0  0  0  0  0
    9.4629    7.5494   25.7477 H   0  0  0  0  0  0  0  0  0  0  0  0
    9.7785    9.9736   25.5262 H   0  0  0  0  0  0  0  0  0  0  0  0
   10.7872   10.8996   23.4890 H   0  0  0  0  0  0  0  0  0  0  0  0
   11.0297    5.9815   21.7755 H   0  0  0  0  0  0  0  0  0  0  0  0
   13.3391    8.2447   21.3985 H   0  0  0  0  0  0  0  0  0  0  0  0
   14.5693    9.4586   19.6278 H   0  0  0  0  0  0  0  0  0  0  0  0
   13.6200   11.5403   18.6712 H   0  0  0  0  0  0  0  0  0  0  0  0
   11.4413   12.3751   19.4855 H   0  0  0  0  0  0  0  0  0  0  0  0
   10.2188   11.1734   21.2318 H   0  0  0  0  0  0  0  0  0  0  0  0
    7.9962    1.2835   27.1539 H   0  0  0  0  0  0  0  0  0  0  0  0
  1  2  1  0  0  0  0
  1  6  1  0  0  0  0
  1  7  1  1  0  0  0
  2  3  1  0  0  0  0
  2 26  1  0  0  0  0
  3 27  1  0  0  0  0
  4  3  1  1  0  0  0
  4  5  1  0  0  0  0
  4 10  1  0  0  0  0
  5  6  1  1  0  0  0
  5 11  1  0  0  0  0
  6 28  1  0  0  0  0
  7  8  2  0  0  0  0
  7  9  1  0  0  0  0
  8 29  1  0  0  0  0
  8 43  1  0  0  0  0
  9 30  1  0  0  0  0
  9 31  1  0  0  0  0
 10 32  1  0  0  0  0
 11 12  1  0  0  0  0
 11 33  1  0  0  0  0
 12 10  1  6  0  0  0
 12 13  1  0  0  0  0
 13 14  1  6  0  0  0
 13 18  1  0  0  0  0
 14 15  1  0  0  0  0
 14 34  1  0  0  0  0
 15 16  1  0  0  0  0
 15 35  1  0  0  0  0
 16 17  1  0  0  0  0
 16 36  1  0  0  0  0
 17 18  1  0  0  0  0
 17 20  1  1  0  0  0
 18 19  1  6  0  0  0
 19 37  1  0  0  0  0
 20 21  1  0  0  0  0
 20 25  1  0  0  0  0
 21 22  1  0  0  0  0
 21 38  1  0  0  0  0
 22 23  1  0  0  0  0
 22 39  1  0  0  0  0
 23 24  1  0  0  0  0
 23 40  1  0  0  0  0
 24 25  1  0  0  0  0
 24 41  1  0  0  0  0
 25 42  1  0  0  0  0
M  CHG  1  10   1
M  END
$$$$
