761
 OpenBabel04041914103D

 26 27  0  0  0  0  0  0  0  0999 V2000
   46.1168    9.8398    1.1070 C   0  0  0  0  0  0  0  0  0  0  0  0
   46.2673   10.9529    1.9329 C   0  0  0  0  0  0  0  0  0  0  0  0
   45.4946   12.0935    1.7406 C   0  0  0  0  0  0  0  0  0  0  0  0
   44.5810   12.1183    0.6625 C   0  0  0  0  0  0  0  0  0  0  0  0
   44.4193   10.9921   -0.1531 C   0  0  0  0  0  0  0  0  0  0  0  0
   45.1690    9.8549    0.0816 C   0  0  0  0  0  0  0  0  0  0  0  0
   45.5790   13.2052    2.5883 C   0  0  0  0  0  0  0  0  0  0  0  0
   44.7797   14.3289    2.3420 C   0  0  0  0  0  0  0  0  0  0  0  0
   43.9634   14.3905    1.2019 C   0  0  0  0  0  0  0  0  0  0  0  0
   43.8390   13.2617    0.4029 C   0  0  0  0  0  0  0  0  0  0  0  0
   43.2598   15.6428    0.7950 C   0  0  0  0  0  0  0  0  0  0  0  0
   43.0064   16.5250    1.6741 O   0  0  0  0  0  0  0  0  0  0  0  0
   42.9730   15.7897   -0.4440 O   0  0  0  0  0  0  0  0  0  0  0  0
   44.8119   15.4600    3.1561 N   0  0  0  0  0  0  0  0  0  0  0  0
   45.2214   15.5670    4.4579 C   0  0  0  0  0  0  0  0  0  0  0  0
   45.4678   14.6275    5.2182 O   0  0  0  0  0  0  0  0  0  0  0  0
   45.4144   17.0043    5.0409 C   0  0  0  0  0  0  0  0  0  0  0  0
   44.3784   17.7418    5.1380 O   0  0  0  0  0  0  0  0  0  0  0  0
   46.6112   17.3432    5.3272 O   0  0  0  0  0  0  0  0  0  0  0  0
   46.7256    8.9605    1.2634 H   0  0  0  0  0  0  0  0  0  0  0  0
   46.9923   10.9202    2.7441 H   0  0  0  0  0  0  0  0  0  0  0  0
   43.6951   11.0250   -0.9598 H   0  0  0  0  0  0  0  0  0  0  0  0
   45.0195    8.9810   -0.5449 H   0  0  0  0  0  0  0  0  0  0  0  0
   46.2582   13.2021    3.4361 H   0  0  0  0  0  0  0  0  0  0  0  0
   43.1717   13.3072   -0.4608 H   0  0  0  0  0  0  0  0  0  0  0  0
   44.3320   16.2899    2.7755 H   0  0  0  0  0  0  0  0  0  0  0  0
  1  6  2  0  0  0  0
  1  2  1  0  0  0  0
  1 20  1  0  0  0  0
  2  3  2  0  0  0  0
  2 21  1  0  0  0  0
  3  7  1  0  0  0  0
  3  4  1  0  0  0  0
  4 10  1  0  0  0  0
  4  5  2  0  0  0  0
  5  6  1  0  0  0  0
  5 22  1  0  0  0  0
  6 23  1  0  0  0  0
  7  8  2  0  0  0  0
  7 24  1  0  0  0  0
  8  9  1  0  0  0  0
  8 14  1  0  0  0  0
  9 10  2  0  0  0  0
  9 11  1  0  0  0  0
 10 25  1  0  0  0  0
 11 13  2  0  0  0  0
 11 12  1  0  0  0  0
 14 15  1  0  0  0  0
 14 26  1  0  0  0  0
 15 17  1  0  0  0  0
 15 16  2  0  0  0  0
 17 19  2  0  0  0  0
 17 18  1  0  0  0  0
M  END
$$$$
