780
 OpenBabel04041916053D

 42 45  0  0  0  0  0  0  0  0999 V2000
   44.0940   -2.9954   26.1285 C   0  0  0  0  0  0  0  0  0  0  0  0
   44.3920   -1.6115   26.1019 C   0  0  0  0  0  0  0  0  0  0  0  0
   44.3122   -0.8055   27.2348 C   0  0  0  0  0  0  0  0  0  0  0  0
   43.9237   -1.4584   28.3770 C   0  0  0  0  0  0  0  0  0  0  0  0
   43.6254   -2.7941   28.4700 C   0  0  0  0  0  0  0  0  0  0  0  0
   43.7027   -3.6018   27.3333 C   0  0  0  0  0  0  0  0  0  0  0  0
   44.2034   -3.7929   24.8943 C   0  0  0  0  0  0  0  0  0  0  0  0
   43.9229   -5.0718   24.8945 N   0  0  0  0  0  0  0  0  0  0  0  0
   44.5841   -3.2157   23.7703 N   0  0  0  0  0  0  0  0  0  0  0  0
   43.7366   -0.9937   29.6342 N   0  3  0  0  0  0  0  0  0  0  0  0
   43.2751   -3.1568   29.7302 N   0  0  0  0  0  0  0  0  0  0  0  0
   43.3436   -2.0326   30.4224 C   0  0  0  0  0  0  0  0  0  0  0  0
   43.0752   -1.8783   31.8314 C   0  0  0  0  0  0  0  0  0  0  0  0
   42.7555   -3.0201   32.5636 C   0  0  0  0  0  0  0  0  0  0  0  0
   42.5086   -2.9276   33.9225 C   0  0  0  0  0  0  0  0  0  0  0  0
   42.5837   -1.6856   34.5471 C   0  0  0  0  0  0  0  0  0  0  0  0
   42.9152   -0.5163   33.8332 C   0  0  0  0  0  0  0  0  0  0  0  0
   43.1584   -0.6308   32.4632 C   0  0  0  0  0  0  0  0  0  0  0  0
   43.4795    0.4689   31.6913 O   0  0  0  0  0  0  0  0  0  0  0  0
   42.9733    0.7593   34.5458 C   0  0  0  0  0  0  0  0  0  0  0  0
   44.1380    1.5413   34.5372 C   0  0  0  0  0  0  0  0  0  0  0  0
   44.1940    2.7373   35.2427 C   0  0  0  0  0  0  0  0  0  0  0  0
   43.0923    3.1530   35.9871 C   0  0  0  0  0  0  0  0  0  0  0  0
   41.9315    2.3845   36.0148 C   0  0  0  0  0  0  0  0  0  0  0  0
   41.8693    1.1977   35.2909 C   0  0  0  0  0  0  0  0  0  0  0  0
   44.6958   -1.0956   25.2096 H   0  0  0  0  0  0  0  0  0  0  0  0
   44.5347    0.2554   27.2074 H   0  0  0  0  0  0  0  0  0  0  0  0
   43.4547   -4.6413   27.4646 H   0  0  0  0  0  0  0  0  0  0  0  0
   43.9973   -5.6345   24.0512 H   0  0  0  0  0  0  0  0  0  0  0  0
   44.8040   -2.2298   23.7304 H   0  0  0  0  0  0  0  0  0  0  0  0
   44.6757   -3.7239   22.9083 H   0  0  0  0  0  0  0  0  0  0  0  0
   43.8508   -0.0411   29.9603 H   0  0  0  0  0  0  0  0  0  0  0  0
   42.7155   -3.9882   32.0717 H   0  0  0  0  0  0  0  0  0  0  0  0
   42.2583   -3.8192   34.4903 H   0  0  0  0  0  0  0  0  0  0  0  0
   42.3827   -1.6308   35.6146 H   0  0  0  0  0  0  0  0  0  0  0  0
   44.1717    0.9674   32.1565 H   0  0  0  0  0  0  0  0  0  0  0  0
   45.0233    1.2128   33.9995 H   0  0  0  0  0  0  0  0  0  0  0  0
   45.1017    3.3315   35.2270 H   0  0  0  0  0  0  0  0  0  0  0  0
   43.1439    4.0759   36.5574 H   0  0  0  0  0  0  0  0  0  0  0  0
   41.0761    2.7019   36.6035 H   0  0  0  0  0  0  0  0  0  0  0  0
   40.9557    0.6049   35.3193 H   0  0  0  0  0  0  0  0  0  0  0  0
   43.6314   -5.5638   25.7275 H   0  0  0  0  0  0  0  0  0  0  0  0
  1  2  2  0  0  0  0
  1  6  1  0  0  0  0
  1  7  1  0  0  0  0
  2  3  1  0  0  0  0
  2 26  1  0  0  0  0
  3  4  2  0  0  0  0
  3 27  1  0  0  0  0
  4  5  1  0  0  0  0
  4 10  1  0  0  0  0
  5  6  2  0  0  0  0
  5 11  1  0  0  0  0
  6 28  1  0  0  0  0
  7  8  2  0  0  0  0
  7  9  1  0  0  0  0
  8 29  1  0  0  0  0
  8 42  1  0  0  0  0
  9 30  1  0  0  0  0
  9 31  1  0  0  0  0
 10 12  2  0  0  0  0
 10 32  1  0  0  0  0
 11 12  1  0  0  0  0
 12 13  1  0  0  0  0
 13 14  2  0  0  0  0
 13 18  1  0  0  0  0
 14 15  1  0  0  0  0
 14 33  1  0  0  0  0
 15 16  2  0  0  0  0
 15 34  1  0  0  0  0
 16 17  1  0  0  0  0
 16 35  1  0  0  0  0
 17 18  2  0  0  0  0
 17 20  1  0  0  0  0
 18 19  1  0  0  0  0
 19 36  1  0  0  0  0
 20 21  2  0  0  0  0
 20 25  1  0  0  0  0
 21 22  1  0  0  0  0
 21 37  1  0  0  0  0
 22 23  2  0  0  0  0
 22 38  1  0  0  0  0
 23 24  1  0  0  0  0
 23 39  1  0  0  0  0
 24 25  2  0  0  0  0
 24 40  1  0  0  0  0
 25 41  1  0  0  0  0
M  CHG  1  10   1
M  END
$$$$
