801
 OpenBabel04041916043D

 31 33  0  0  0  0  0  0  0  0999 V2000
   44.0863   -3.0194   26.2854 C   0  0  0  0  0  0  0  0  0  0  0  0
   44.5517   -1.6794   26.3283 C   0  0  0  0  0  0  0  0  0  0  0  0
   44.4873   -0.9001   27.4600 C   0  0  0  0  0  0  0  0  0  0  0  0
   43.9523   -1.5397   28.5479 C   0  0  0  0  0  0  0  0  0  0  0  0
   43.4793   -2.8345   28.5714 C   0  0  0  0  0  0  0  0  0  0  0  0
   43.5296   -3.6084   27.4278 C   0  0  0  0  0  0  0  0  0  0  0  0
   44.1936   -3.7970   25.0526 C   0  0  0  0  0  0  0  0  0  0  0  0
   43.9292   -5.0893   25.0469 N   0  0  0  0  0  0  0  0  0  0  0  0
   44.5723   -3.1891   23.9485 N   0  0  0  0  0  0  0  0  0  0  0  0
   43.7417   -1.0970   29.7923 N   0  3  0  0  0  0  0  0  0  0  0  0
   43.0015   -3.1771   29.7891 N   0  0  0  0  0  0  0  0  0  0  0  0
   43.1820   -2.1009   30.5260 C   0  0  0  0  0  0  0  0  0  0  0  0
   42.8844   -1.9286   31.9203 C   0  0  0  0  0  0  0  0  0  0  0  0
   42.6630   -3.0950   32.5547 N   0  0  0  0  0  0  0  0  0  0  0  0
   42.4091   -3.0117   33.8550 C   0  0  0  0  0  0  0  0  0  0  0  0
   42.3880   -1.8247   34.5611 C   0  0  0  0  0  0  0  0  0  0  0  0
   42.6446   -0.6305   33.8785 C   0  0  0  0  0  0  0  0  0  0  0  0
   42.9097   -0.6758   32.5290 C   0  0  0  0  0  0  0  0  0  0  0  0
   43.1773    0.4685   31.8216 O   0  0  0  0  0  0  0  0  0  0  0  0
   45.0040   -1.1843   25.4751 H   0  0  0  0  0  0  0  0  0  0  0  0
   44.8376    0.1245   27.5043 H   0  0  0  0  0  0  0  0  0  0  0  0
   43.1251   -4.6088   27.5001 H   0  0  0  0  0  0  0  0  0  0  0  0
   43.9968   -5.6438   24.2184 H   0  0  0  0  0  0  0  0  0  0  0  0
   44.7663   -2.1947   23.9316 H   0  0  0  0  0  0  0  0  0  0  0  0
   44.6776   -3.6702   23.0715 H   0  0  0  0  0  0  0  0  0  0  0  0
   43.9388   -0.1684   30.1531 H   0  0  0  0  0  0  0  0  0  0  0  0
   42.2306   -3.9779   34.3413 H   0  0  0  0  0  0  0  0  0  0  0  0
   42.1626   -1.8279   35.6171 H   0  0  0  0  0  0  0  0  0  0  0  0
   42.6103    0.3110   34.4132 H   0  0  0  0  0  0  0  0  0  0  0  0
   43.8698    0.9670   32.2929 H   0  0  0  0  0  0  0  0  0  0  0  0
   43.6491   -5.5624   25.8985 H   0  0  0  0  0  0  0  0  0  0  0  0
  1  2  2  0  0  0  0
  1  6  1  0  0  0  0
  1  7  1  0  0  0  0
  2  3  1  0  0  0  0
  2 20  1  0  0  0  0
  3  4  2  0  0  0  0
  3 21  1  0  0  0  0
  4  5  1  0  0  0  0
  4 10  1  0  0  0  0
  5  6  2  0  0  0  0
  5 11  1  0  0  0  0
  6 22  1  0  0  0  0
  7  8  2  0  0  0  0
  7  9  1  0  0  0  0
  8 23  1  0  0  0  0
  8 31  1  0  0  0  0
  9 24  1  0  0  0  0
  9 25  1  0  0  0  0
 10 12  2  0  0  0  0
 10 26  1  0  0  0  0
 11 12  1  0  0  0  0
 12 13  1  0  0  0  0
 13 14  2  0  0  0  0
 13 18  1  0  0  0  0
 14 15  1  0  0  0  0
 15 16  2  0  0  0  0
 15 27  1  0  0  0  0
 16 17  1  0  0  0  0
 16 28  1  0  0  0  0
 17 18  2  0  0  0  0
 17 29  1  0  0  0  0
 18 19  1  0  0  0  0
 19 30  1  0  0  0  0
M  CHG  1  10   1
M  END
$$$$
