802
 OpenBabel04041916043D

 32 34  0  0  0  0  0  0  0  0999 V2000
   44.2796   -2.8428   26.6062 C   0  0  0  0  0  0  0  0  0  0  0  0
   44.7953   -1.5230   26.5888 C   0  0  0  0  0  0  0  0  0  0  0  0
   44.8270   -0.7097   27.7054 C   0  0  0  0  0  0  0  0  0  0  0  0
   44.3663   -1.2965   28.8625 C   0  0  0  0  0  0  0  0  0  0  0  0
   43.7943   -2.5623   28.9394 C   0  0  0  0  0  0  0  0  0  0  0  0
   43.7417   -3.3589   27.7968 C   0  0  0  0  0  0  0  0  0  0  0  0
   44.3229   -3.6768   25.3969 C   0  0  0  0  0  0  0  0  0  0  0  0
   44.1449   -4.9775   25.4751 N   0  0  0  0  0  0  0  0  0  0  0  0
   44.5470   -3.1223   24.2294 N   0  0  0  0  0  0  0  0  0  0  0  0
   44.3687   -0.8641   30.1447 N   0  3  0  0  0  0  0  0  0  0  0  0
   43.3580   -2.8304   30.2080 N   0  0  0  0  0  0  0  0  0  0  0  0
   43.6633   -1.7534   30.9036 C   0  0  0  0  0  0  0  0  0  0  0  0
   43.3364   -1.4902   32.2962 C   0  0  0  0  0  0  0  0  0  0  0  0
   42.9635   -2.5669   33.1039 C   0  0  0  0  0  0  0  0  0  0  0  0
   42.6635   -2.3403   34.4433 C   0  0  0  0  0  0  0  0  0  0  0  0
   42.3312   -3.3761   35.2206 F   0  0  0  0  0  0  0  0  0  0  0  0
   42.7185   -1.0671   34.9847 C   0  0  0  0  0  0  0  0  0  0  0  0
   43.0788    0.0161   34.1814 C   0  0  0  0  0  0  0  0  0  0  0  0
   43.3923   -0.1970   32.8475 C   0  0  0  0  0  0  0  0  0  0  0  0
   43.7564    0.9128   32.1321 O   0  0  0  0  0  0  0  0  0  0  0  0
   45.2315   -1.0857   25.6858 H   0  0  0  0  0  0  0  0  0  0  0  0
   45.2316    0.2955   27.6912 H   0  0  0  0  0  0  0  0  0  0  0  0
   43.3007   -4.3379   27.9063 H   0  0  0  0  0  0  0  0  0  0  0  0
   44.1666   -5.5905   24.6666 H   0  0  0  0  0  0  0  0  0  0  0  0
   44.6427   -2.1219   24.1040 H   0  0  0  0  0  0  0  0  0  0  0  0
   44.6094   -3.6623   23.3743 H   0  0  0  0  0  0  0  0  0  0  0  0
   44.7945   -0.0063   30.4653 H   0  0  0  0  0  0  0  0  0  0  0  0
   42.9141   -3.5742   32.7137 H   0  0  0  0  0  0  0  0  0  0  0  0
   42.4785   -0.9179   36.0342 H   0  0  0  0  0  0  0  0  0  0  0  0
   43.1140    1.0276   34.5999 H   0  0  0  0  0  0  0  0  0  0  0  0
   43.2538    0.9142   31.3040 H   0  0  0  0  0  0  0  0  0  0  0  0
   44.0022   -5.4458   26.3554 H   0  0  0  0  0  0  0  0  0  0  0  0
  1  2  2  0  0  0  0
  1  6  1  0  0  0  0
  1  7  1  0  0  0  0
  2  3  1  0  0  0  0
  2 21  1  0  0  0  0
  3  4  2  0  0  0  0
  3 22  1  0  0  0  0
  4  5  1  0  0  0  0
  4 10  1  0  0  0  0
  5  6  2  0  0  0  0
  5 11  1  0  0  0  0
  6 23  1  0  0  0  0
  7  8  2  0  0  0  0
  7  9  1  0  0  0  0
  8 24  1  0  0  0  0
  8 32  1  0  0  0  0
  9 25  1  0  0  0  0
  9 26  1  0  0  0  0
 10 12  2  0  0  0  0
 10 27  1  0  0  0  0
 11 12  1  0  0  0  0
 12 13  1  0  0  0  0
 13 14  2  0  0  0  0
 13 19  1  0  0  0  0
 14 15  1  0  0  0  0
 14 28  1  0  0  0  0
 15 16  1  0  0  0  0
 15 17  2  0  0  0  0
 17 18  1  0  0  0  0
 17 29  1  0  0  0  0
 18 19  2  0  0  0  0
 18 30  1  0  0  0  0
 19 20  1  0  0  0  0
 20 31  1  0  0  0  0
M  CHG  1  10   1
M  END
$$$$
