847
 OpenBabel04041916033D

 42 44  0  0  1  0  0  0  0  0999 V2000
   44.0835   -2.9329   26.4315 C   0  0  0  0  0  0  0  0  0  0  0  0
   44.4727   -1.5686   26.3968 C   0  0  0  0  0  0  0  0  0  0  0  0
   44.3937   -0.7277   27.5054 C   0  0  0  0  0  0  0  0  0  0  0  0
   43.9152   -1.3237   28.6539 C   0  0  0  0  0  0  0  0  0  0  0  0
   43.5374   -2.6464   28.7552 C   0  0  0  0  0  0  0  0  0  0  0  0
   43.5996   -3.4690   27.6390 C   0  0  0  0  0  0  0  0  0  0  0  0
   44.1784   -3.7912   25.2351 C   0  0  0  0  0  0  0  0  0  0  0  0
   43.9725   -5.0926   25.3192 N   0  0  0  0  0  0  0  0  0  0  0  0
   44.4751   -3.2671   24.0629 N   0  0  0  0  0  0  0  0  0  0  0  0
   43.6947   -0.8351   29.8961 N   0  3  0  0  0  0  0  0  0  0  0  0
   43.1426   -2.9658   30.0112 N   0  0  0  0  0  0  0  0  0  0  0  0
   43.2570   -1.8507   30.7027 C   0  0  0  0  0  0  0  0  0  0  0  0
   42.9965   -1.6383   32.1096 C   0  0  0  0  0  0  0  0  0  0  0  0
   42.5751   -2.7195   32.8849 C   0  0  0  0  0  0  0  0  0  0  0  0
   42.3141   -2.5744   34.2534 C   0  0  0  0  0  0  0  0  0  0  0  0
   41.7875   -3.8090   35.0064 C   0  0  2  0  0  0  0  0  0  0  0  0
   40.3071   -3.9984   34.5387 C   0  0  0  0  0  0  0  0  0  0  0  0
   40.0925   -4.9858   33.7674 O   0  0  0  0  0  0  0  0  0  0  0  0
   39.4838   -3.0958   34.8858 O   0  0  0  0  0  0  0  0  0  0  0  0
   41.9550   -3.7852   36.5393 C   0  0  0  0  0  0  0  0  0  0  0  0
   42.9346   -4.7731   37.1883 C   0  0  0  0  0  0  0  0  0  0  0  0
   43.1012   -5.8926   36.6335 O   0  0  0  0  0  0  0  0  0  0  0  0
   43.4855   -4.3403   38.2495 O   0  0  0  0  0  0  0  0  0  0  0  0
   42.4726   -1.2979   34.8218 C   0  0  0  0  0  0  0  0  0  0  0  0
   42.9237   -0.2173   34.0623 C   0  0  0  0  0  0  0  0  0  0  0  0
   43.1932   -0.3873   32.7101 C   0  0  0  0  0  0  0  0  0  0  0  0
   43.6914    0.6566   31.9530 O   0  0  0  0  0  0  0  0  0  0  0  0
   43.1620    1.4773   34.8790 Br  0  0  0  0  0  0  0  0  0  0  0  0
   44.8707   -1.1045   25.5014 H   0  0  0  0  0  0  0  0  0  0  0  0
   44.6904    0.3135   27.4916 H   0  0  0  0  0  0  0  0  0  0  0  0
   43.2607   -4.4862   27.7872 H   0  0  0  0  0  0  0  0  0  0  0  0
   44.0221   -5.7039   24.5214 H   0  0  0  0  0  0  0  0  0  0  0  0
   44.6174   -2.2692   23.9696 H   0  0  0  0  0  0  0  0  0  0  0  0
   44.5557   -3.8244   23.2365 H   0  0  0  0  0  0  0  0  0  0  0  0
   43.8419    0.1073   30.2306 H   0  0  0  0  0  0  0  0  0  0  0  0
   42.4180   -3.6942   32.4187 H   0  0  0  0  0  0  0  0  0  0  0  0
   42.3518   -4.6683   34.6176 H   0  0  0  0  0  0  0  0  0  0  0  0
   40.9881   -3.9643   37.0237 H   0  0  0  0  0  0  0  0  0  0  0  0
   42.2874   -2.8070   36.8916 H   0  0  0  0  0  0  0  0  0  0  0  0
   42.2212   -1.1309   35.8632 H   0  0  0  0  0  0  0  0  0  0  0  0
   44.2941    1.1375   32.5493 H   0  0  0  0  0  0  0  0  0  0  0  0
   43.7509   -5.5328   26.2097 H   0  0  0  0  0  0  0  0  0  0  0  0
  1  2  2  0  0  0  0
  1  6  1  0  0  0  0
  1  7  1  0  0  0  0
  2  3  1  0  0  0  0
  2 29  1  0  0  0  0
  3  4  2  0  0  0  0
  3 30  1  0  0  0  0
  4  5  1  0  0  0  0
  4 10  1  0  0  0  0
  5  6  2  0  0  0  0
  5 11  1  0  0  0  0
  6 31  1  0  0  0  0
  7  8  2  0  0  0  0
  7  9  1  0  0  0  0
  8 32  1  0  0  0  0
  8 42  1  0  0  0  0
  9 33  1  0  0  0  0
  9 34  1  0  0  0  0
 10 12  2  0  0  0  0
 10 35  1  0  0  0  0
 11 12  1  0  0  0  0
 12 13  1  0  0  0  0
 13 14  2  0  0  0  0
 13 26  1  0  0  0  0
 14 15  1  0  0  0  0
 14 36  1  0  0  0  0
 15 16  1  0  0  0  0
 15 24  2  0  0  0  0
 16 17  1  0  0  0  0
 16 20  1  0  0  0  0
 16 37  1  6  0  0  0
 17 18  2  0  0  0  0
 17 19  1  0  0  0  0
 20 21  1  0  0  0  0
 20 38  1  0  0  0  0
 20 39  1  0  0  0  0
 21 22  2  0  0  0  0
 21 23  1  0  0  0  0
 24 25  1  0  0  0  0
 24 40  1  0  0  0  0
 25 26  2  0  0  0  0
 25 28  1  0  0  0  0
 26 27  1  0  0  0  0
 27 41  1  0  0  0  0
M  CHG  1  10   1
M  END
$$$$
