8GT
 OpenBabel04041917323D

 44 46  0  0  1  0  0  0  0  0999 V2000
  -29.3323  -16.5692    1.3698 P   0  0  0  0  0  0  0  0  0  0  0  0
  -29.9207  -16.4632   -0.0301 O   0  0  0  0  0  0  0  0  0  0  0  0
  -29.6370  -15.3457    2.2450 O   0  0  0  0  0  0  0  0  0  0  0  0
  -27.8184  -16.8377    1.4044 O   0  0  0  0  0  0  0  0  0  0  0  0
  -30.0159  -17.8293    2.1386 O   0  0  0  0  0  0  0  0  0  0  0  0
  -30.7851  -19.1085    1.5267 P   0  0  2  0  0  0  0  0  0  0  0  0
  -29.8701  -19.9223    0.6116 O   0  0  0  0  0  0  0  0  0  0  0  0
  -32.1957  -18.8088    1.0420 O   0  0  0  0  0  0  0  0  0  0  0  0
  -30.9200  -20.0626    2.8313 O   0  0  0  0  0  0  0  0  0  0  0  0
  -31.5211  -19.8774    4.2946 P   0  0  2  0  0  0  0  0  0  0  0  0
  -31.7573  -21.2437    4.9386 O   0  0  0  0  0  0  0  0  0  0  0  0
  -32.6462  -18.8771    4.4028 O   0  0  0  0  0  0  0  0  0  0  0  0
  -24.5817  -19.2843    6.6670 N   0  3  0  0  0  0  0  0  0  0  0  0
  -23.7672  -19.9936    5.7384 C   0  0  0  0  0  0  0  0  0  0  0  0
  -22.5386  -20.2511    6.3189 N   0  0  0  0  0  0  0  0  0  0  0  0
  -22.6058  -19.7431    7.4889 C   0  0  1  0  0  0  0  0  0  0  0  0
  -21.5856  -19.7012    8.5809 C   0  0  0  0  0  0  0  0  0  0  0  0
  -20.4927  -20.1909    8.4558 O   0  0  0  0  0  0  0  0  0  0  0  0
  -22.0168  -19.0553    9.7304 N   0  3  0  0  0  0  0  0  0  0  0  0
  -23.2251  -18.4762    9.9478 C   0  0  0  0  0  0  0  0  0  0  0  0
  -23.4880  -17.9193   11.0569 N   0  0  0  0  0  0  0  0  0  0  0  0
  -24.1426  -18.5368    8.8978 N   0  3  0  0  0  0  0  0  0  0  0  0
  -23.8740  -19.1157    7.7611 C   0  0  2  0  0  0  0  0  0  0  0  0
  -24.1536  -20.3215    4.6350 O   0  0  0  0  0  0  0  0  0  0  0  0
  -30.2404  -19.2557    5.0927 O   0  0  0  0  0  0  0  0  0  0  0  0
  -29.0893  -20.0298    5.3658 C   0  0  0  0  0  0  0  0  0  0  0  0
  -28.1040  -19.1211    6.1021 C   0  0  1  0  0  0  0  0  0  0  0  0
  -26.8801  -19.8030    6.5596 O   0  0  0  0  0  0  0  0  0  0  0  0
  -27.6662  -17.8923    5.2624 C   0  0  1  0  0  0  0  0  0  0  0  0
  -27.9504  -16.6921    6.0111 O   0  0  0  0  0  0  0  0  0  0  0  0
  -26.1506  -18.0392    5.1909 C   0  0  1  0  0  0  0  0  0  0  0  0
  -25.4168  -16.8102    5.1755 O   0  0  0  0  0  0  0  0  0  0  0  0
  -25.9084  -18.7732    6.4792 C   0  0  2  0  0  0  0  0  0  0  0  0
  -21.3651  -19.0021   10.4891 H   0  0  0  0  0  0  0  0  0  0  0  0
  -24.4413  -17.5273   11.0671 H   0  0  0  0  0  0  0  0  0  0  0  0
  -25.0581  -18.1178    9.0054 H   0  0  0  0  0  0  0  0  0  0  0  0
  -28.6230  -20.4263    4.4593 H   0  0  0  0  0  0  0  0  0  0  0  0
  -29.3445  -20.8684    6.0229 H   0  0  0  0  0  0  0  0  0  0  0  0
  -28.5925  -18.7679    7.0218 H   0  0  0  0  0  0  0  0  0  0  0  0
  -28.1056  -17.8614    4.2620 H   0  0  0  0  0  0  0  0  0  0  0  0
  -27.8541  -15.9616    5.3577 H   0  0  0  0  0  0  0  0  0  0  0  0
  -25.8631  -18.6594    4.3440 H   0  0  0  0  0  0  0  0  0  0  0  0
  -25.7622  -16.3530    4.3727 H   0  0  0  0  0  0  0  0  0  0  0  0
  -26.1061  -18.0853    7.3162 H   0  0  0  0  0  0  0  0  0  0  0  0
  1  2  2  0  0  0  0
  1  3  1  0  0  0  0
  1  4  1  0  0  0  0
  1  5  1  0  0  0  0
  6  5  1  1  0  0  0
  6  7  2  0  0  0  0
  6  8  1  0  0  0  0
  6  9  1  0  0  0  0
 10  9  1  6  0  0  0
 10 11  2  0  0  0  0
 10 12  1  0  0  0  0
 10 25  1  0  0  0  0
 13 14  1  0  0  0  0
 13 33  1  0  0  0  0
 14 15  1  0  0  0  0
 14 24  2  0  0  0  0
 16 15  1  6  0  0  0
 16 17  1  0  0  0  0
 16 23  1  0  0  0  0
 17 18  2  0  0  0  0
 17 19  1  0  0  0  0
 19 20  1  0  0  0  0
 19 34  1  0  0  0  0
 20 21  2  0  0  0  0
 20 22  1  0  0  0  0
 21 35  1  0  0  0  0
 22 23  1  0  0  0  0
 22 36  1  0  0  0  0
 23 13  1  1  0  0  0
 25 26  1  0  0  0  0
 26 27  1  0  0  0  0
 26 37  1  0  0  0  0
 26 38  1  0  0  0  0
 27 28  1  0  0  0  0
 27 29  1  0  0  0  0
 27 39  1  1  0  0  0
 28 33  1  0  0  0  0
 29 30  1  0  0  0  0
 29 31  1  0  0  0  0
 29 40  1  6  0  0  0
 30 41  1  0  0  0  0
 31 32  1  0  0  0  0
 31 33  1  0  0  0  0
 31 42  1  6  0  0  0
 32 43  1  0  0  0  0
 33 44  1  1  0  0  0
M  CHG  3  13   1  19   1  22   1
M  END
$$$$
