907
 OpenBabel04041916053D

 36 38  0  0  1  0  0  0  0  0999 V2000
   44.2486   -3.0137   25.8714 C   0  0  2  0  0  0  0  0  0  0  0  0
   44.6489   -1.6677   25.9930 C   0  0  0  0  0  0  0  0  0  0  0  0
   44.5899   -0.9574   27.1832 C   0  0  0  0  0  0  0  0  0  0  0  0
   44.1103   -1.6549   28.2684 C   0  0  1  0  0  0  0  0  0  0  0  0
   43.6915   -2.9764   28.2242 C   0  0  1  0  0  0  0  0  0  0  0  0
   43.7562   -3.6751   27.0116 C   0  0  0  0  0  0  0  0  0  0  0  0
   44.3556   -3.6963   24.5690 C   0  0  0  0  0  0  0  0  0  0  0  0
   43.9896   -4.9609   24.4266 N   0  0  0  0  0  0  0  0  0  0  0  0
   44.8249   -3.0511   23.5268 N   0  0  0  0  0  0  0  0  0  0  0  0
   43.9598   -1.2306   29.5555 N   0  3  0  0  0  0  0  0  0  0  0  0
   43.2748   -3.3328   29.5241 C   0  0  0  0  0  0  0  0  0  0  0  0
   43.4657   -2.2327   30.3434 C   0  0  1  0  0  0  0  0  0  0  0  0
   43.2511   -2.0498   31.7743 C   0  0  2  0  0  0  0  0  0  0  0  0
   42.9048   -3.1640   32.5429 C   0  0  0  0  0  0  0  0  0  0  0  0
   42.6954   -3.0385   33.9198 C   0  0  1  0  0  0  0  0  0  0  0  0
   42.3369   -4.2230   34.7546 C   0  0  0  0  0  0  0  0  0  0  0  0
   42.8357   -1.7896   34.5145 C   0  0  0  0  0  0  0  0  0  0  0  0
   43.1774   -0.6694   33.7647 C   0  0  2  0  0  0  0  0  0  0  0  0
   43.3803   -0.7922   32.3907 C   0  0  2  0  0  0  0  0  0  0  0  0
   43.6955    0.3075   31.6252 O   0  0  0  0  0  0  0  0  0  0  0  0
   43.3729    0.9738   34.6730 Br  0  0  0  0  0  0  0  0  0  0  0  0
   45.0377   -1.0894   25.1607 H   0  0  0  0  0  0  0  0  0  0  0  0
   44.9079    0.0775   27.2569 H   0  0  0  0  0  0  0  0  0  0  0  0
   43.4259   -4.7070   27.0206 H   0  0  0  0  0  0  0  0  0  0  0  0
   44.0646   -5.4292   23.5286 H   0  0  0  0  0  0  0  0  0  0  0  0
   45.1183   -2.0825   23.6035 H   0  0  0  0  0  0  0  0  0  0  0  0
   44.9253   -3.4654   22.6200 H   0  0  0  0  0  0  0  0  0  0  0  0
   44.1909   -0.3026   29.8949 H   0  0  0  0  0  0  0  0  0  0  0  0
   42.8919   -4.2909   29.8343 H   0  0  0  0  0  0  0  0  0  0  0  0
   42.8014   -4.1406   32.0764 H   0  0  0  0  0  0  0  0  0  0  0  0
   42.2184   -3.9183   35.7994 H   0  0  0  0  0  0  0  0  0  0  0  0
   43.1311   -4.9736   34.7118 H   0  0  0  0  0  0  0  0  0  0  0  0
   41.3891   -4.6531   34.4197 H   0  0  0  0  0  0  0  0  0  0  0  0
   42.6788   -1.6965   35.5868 H   0  0  0  0  0  0  0  0  0  0  0  0
   43.0329    0.9895   31.8406 H   0  0  0  0  0  0  0  0  0  0  0  0
   43.6267   -5.4963   25.1982 H   0  0  0  0  0  0  0  0  0  0  0  0
  1  2  1  0  0  0  0
  1  6  1  0  0  0  0
  1  7  1  1  0  0  0
  2  3  1  0  0  0  0
  2 22  1  0  0  0  0
  3 23  1  0  0  0  0
  4  3  1  1  0  0  0
  4  5  1  0  0  0  0
  4 10  1  0  0  0  0
  5  6  1  1  0  0  0
  5 11  1  0  0  0  0
  6 24  1  0  0  0  0
  7  8  2  0  0  0  0
  7  9  1  0  0  0  0
  8 25  1  0  0  0  0
  8 36  1  0  0  0  0
  9 26  1  0  0  0  0
  9 27  1  0  0  0  0
 10 28  1  0  0  0  0
 11 12  1  0  0  0  0
 11 29  1  0  0  0  0
 12 10  1  1  0  0  0
 12 13  1  0  0  0  0
 13 14  1  6  0  0  0
 13 19  1  0  0  0  0
 14 15  1  0  0  0  0
 14 30  1  0  0  0  0
 15 16  1  1  0  0  0
 15 17  1  0  0  0  0
 16 31  1  0  0  0  0
 16 32  1  0  0  0  0
 16 33  1  0  0  0  0
 17 18  1  0  0  0  0
 17 34  1  0  0  0  0
 18 19  1  0  0  0  0
 18 21  1  1  0  0  0
 19 20  1  6  0  0  0
 20 35  1  0  0  0  0
M  CHG  1  10   1
M  END
$$$$
