964
 OpenBabel04041916003D

 57 58  0  0  1  0  0  0  0  0999 V2000
   49.0460   34.7442   40.0294 O   0  0  0  0  0  0  0  0  0  0  0  0
   64.6748   31.1140   31.4615 C   0  0  0  0  0  0  0  0  0  0  0  0
   64.1183   30.2189   32.5342 C   0  0  0  0  0  0  0  0  0  0  0  0
   62.8044   30.4528   32.8177 N   0  0  0  0  0  0  0  0  0  0  0  0
   64.8086   29.4639   33.2065 O   0  0  0  0  0  0  0  0  0  0  0  0
   49.4146   33.4939   40.1883 C   0  0  0  0  0  0  0  0  0  0  0  0
   49.5158   32.8790   41.2709 O   0  0  0  0  0  0  0  0  0  0  0  0
   49.7137   32.7499   38.9099 C   0  0  0  0  0  0  0  0  0  0  0  0
   48.7713   31.8262   38.4214 N   0  0  0  0  0  0  0  0  0  0  0  0
   49.1103   31.1935   37.2877 C   0  0  0  0  0  0  0  0  0  0  0  0
   50.3025   31.4362   36.6363 C   0  0  0  0  0  0  0  0  0  0  0  0
   51.2008   32.3522   37.0658 N   0  0  0  0  0  0  0  0  0  0  0  0
   50.8925   33.0119   38.2364 C   0  0  0  0  0  0  0  0  0  0  0  0
   52.0239   33.8222   38.8562 C   0  0  0  0  0  0  0  0  0  0  0  0
   52.2687   33.7830   40.0580 O   0  0  0  0  0  0  0  0  0  0  0  0
   52.8752   34.4880   37.9990 N   0  0  0  0  0  0  0  0  0  0  0  0
   54.3163   34.2005   38.0038 C   0  0  2  0  0  0  0  0  0  0  0  0
   55.1055   35.4069   37.4733 C   0  0  0  0  0  0  0  0  0  0  0  0
   54.9291   35.6349   35.9710 C   0  0  0  0  0  0  0  0  0  0  0  0
   54.6124   32.9458   37.1624 C   0  0  0  0  0  0  0  0  0  0  0  0
   54.4257   33.1925   35.6619 C   0  0  0  0  0  0  0  0  0  0  0  0
   55.2576   34.3858   35.1434 C   0  0  1  0  0  0  0  0  0  0  0  0
   54.9643   34.6179   33.6601 C   0  0  0  0  0  0  0  0  0  0  0  0
   53.8297   34.5577   33.1788 O   0  0  0  0  0  0  0  0  0  0  0  0
   56.0581   34.8688   32.8559 N   0  0  0  0  0  0  0  0  0  0  0  0
   56.4826   33.8765   31.8692 C   0  0  0  0  0  0  0  0  0  0  0  0
   57.6267   33.0109   32.4153 C   0  0  0  0  0  0  0  0  0  0  0  0
   60.5553   32.4998   32.8942 S   0  0  0  0  0  0  0  0  0  0  0  0
   61.7340   30.2073   31.8483 C   0  0  0  0  0  0  0  0  0  0  0  0
   60.3901   30.7514   32.3432 C   0  0  0  0  0  0  0  0  0  0  0  0
   59.2343   33.5403   31.7270 S   0  0  0  0  0  0  0  0  0  0  0  0
   65.7416   30.9034   31.3399 H   0  0  0  0  0  0  0  0  0  0  0  0
   64.5669   32.1544   31.7855 H   0  0  0  0  0  0  0  0  0  0  0  0
   64.1717   30.9671   30.5091 H   0  0  0  0  0  0  0  0  0  0  0  0
   62.5595   30.3905   33.8019 H   0  0  0  0  0  0  0  0  0  0  0  0
   48.3905   30.4514   36.9265 H   0  0  0  0  0  0  0  0  0  0  0  0
   50.5694   30.8831   35.7428 H   0  0  0  0  0  0  0  0  0  0  0  0
   52.4730   34.9717   37.2016 H   0  0  0  0  0  0  0  0  0  0  0  0
   54.6171   33.9973   39.0387 H   0  0  0  0  0  0  0  0  0  0  0  0
   56.1756   35.2619   37.6841 H   0  0  0  0  0  0  0  0  0  0  0  0
   54.7972   36.3090   38.0135 H   0  0  0  0  0  0  0  0  0  0  0  0
   55.5628   36.4674   35.6472 H   0  0  0  0  0  0  0  0  0  0  0  0
   53.8937   35.9431   35.7716 H   0  0  0  0  0  0  0  0  0  0  0  0
   53.9587   32.1228   37.4764 H   0  0  0  0  0  0  0  0  0  0  0  0
   55.6413   32.6072   37.3432 H   0  0  0  0  0  0  0  0  0  0  0  0
   53.3599   33.3644   35.4597 H   0  0  0  0  0  0  0  0  0  0  0  0
   54.6940   32.2848   35.1093 H   0  0  0  0  0  0  0  0  0  0  0  0
   56.3201   34.1408   35.2722 H   0  0  0  0  0  0  0  0  0  0  0  0
   56.6716   35.6386   33.0662 H   0  0  0  0  0  0  0  0  0  0  0  0
   56.7602   34.4031   30.9500 H   0  0  0  0  0  0  0  0  0  0  0  0
   55.6321   33.2250   31.6358 H   0  0  0  0  0  0  0  0  0  0  0  0
   57.4838   31.9704   32.1082 H   0  0  0  0  0  0  0  0  0  0  0  0
   57.6572   33.0502   33.5103 H   0  0  0  0  0  0  0  0  0  0  0  0
   62.0054   30.6715   30.8979 H   0  0  0  0  0  0  0  0  0  0  0  0
   61.6601   29.1360   31.6722 H   0  0  0  0  0  0  0  0  0  0  0  0
   59.6272   30.6271   31.5646 H   0  0  0  0  0  0  0  0  0  0  0  0
   60.0700   30.1842   33.2192 H   0  0  0  0  0  0  0  0  0  0  0  0
  1  6  2  0  0  0  0
  2  3  1  0  0  0  0
  2 32  1  0  0  0  0
  2 33  1  0  0  0  0
  2 34  1  0  0  0  0
  3  4  1  0  0  0  0
  3  5  2  0  0  0  0
  4 29  1  0  0  0  0
  4 35  1  0  0  0  0
  6  7  1  0  0  0  0
  6  8  1  0  0  0  0
  8  9  2  0  0  0  0
  8 13  1  0  0  0  0
  9 10  1  0  0  0  0
 10 11  2  0  0  0  0
 10 36  1  0  0  0  0
 11 12  1  0  0  0  0
 11 37  1  0  0  0  0
 12 13  2  0  0  0  0
 13 14  1  0  0  0  0
 14 15  2  0  0  0  0
 14 16  1  0  0  0  0
 16 17  1  0  0  0  0
 16 38  1  0  0  0  0
 17 18  1  0  0  0  0
 17 20  1  0  0  0  0
 17 39  1  1  0  0  0
 18 19  1  0  0  0  0
 18 40  1  0  0  0  0
 18 41  1  0  0  0  0
 19 22  1  0  0  0  0
 19 42  1  0  0  0  0
 19 43  1  0  0  0  0
 20 21  1  0  0  0  0
 20 44  1  0  0  0  0
 20 45  1  0  0  0  0
 21 22  1  0  0  0  0
 21 46  1  0  0  0  0
 21 47  1  0  0  0  0
 22 23  1  0  0  0  0
 22 48  1  1  0  0  0
 23 24  2  0  0  0  0
 23 25  1  0  0  0  0
 25 26  1  0  0  0  0
 25 49  1  0  0  0  0
 26 27  1  0  0  0  0
 26 50  1  0  0  0  0
 26 51  1  0  0  0  0
 27 31  1  0  0  0  0
 27 52  1  0  0  0  0
 27 53  1  0  0  0  0
 28 30  1  0  0  0  0
 28 31  1  0  0  0  0
 29 30  1  0  0  0  0
 29 54  1  0  0  0  0
 29 55  1  0  0  0  0
 30 56  1  0  0  0  0
 30 57  1  0  0  0  0
M  END
$$$$
