968
 OpenBabel04041916143D

 37 39  0  0  0  0  0  0  0  0999 V2000
   35.8505   29.7401   23.1581 O   0  0  0  0  0  0  0  0  0  0  0  0
   34.8269   29.0643   23.5090 C   0  0  0  0  0  0  0  0  0  0  0  0
   33.9145   29.4653   24.3157 O   0  0  0  0  0  0  0  0  0  0  0  0
   34.6080   27.6345   22.8780 C   0  0  0  0  0  0  0  0  0  0  0  0
   34.6192   26.7164   23.7153 O   0  0  0  0  0  0  0  0  0  0  0  0
   34.2843   27.4451   21.5065 N   0  0  0  0  0  0  0  0  0  0  0  0
   34.1451   26.0930   20.9454 C   0  0  0  0  0  0  0  0  0  0  0  0
   32.9121   25.7308   20.3403 C   0  0  0  0  0  0  0  0  0  0  0  0
   32.6714   24.4663   19.7571 C   0  0  0  0  0  0  0  0  0  0  0  0
   33.6651   23.5099   19.7296 C   0  0  0  0  0  0  0  0  0  0  0  0
   34.8766   23.8063   20.3311 C   0  0  0  0  0  0  0  0  0  0  0  0
   35.1335   25.0613   20.9760 C   0  0  0  0  0  0  0  0  0  0  0  0
   36.5356   25.1627   21.5430 C   0  0  0  0  0  0  0  0  0  0  0  0
   37.0042   24.1253   22.1170 O   0  0  0  0  0  0  0  0  0  0  0  0
   37.2111   26.1907   21.2274 O   0  0  0  0  0  0  0  0  0  0  0  0
   33.6238   28.5494   20.8220 C   0  0  0  0  0  0  0  0  0  0  0  0
   32.3895   29.0501   21.2934 C   0  0  0  0  0  0  0  0  0  0  0  0
   31.7616   30.1375   20.6745 C   0  0  0  0  0  0  0  0  0  0  0  0
   32.3729   30.7683   19.5911 C   0  0  0  0  0  0  0  0  0  0  0  0
   33.6217   30.3240   19.1038 C   0  0  0  0  0  0  0  0  0  0  0  0
   34.2671   30.9843   18.0320 C   0  0  0  0  0  0  0  0  0  0  0  0
   35.5155   30.5596   17.5693 C   0  0  0  0  0  0  0  0  0  0  0  0
   36.1361   29.4801   18.1832 C   0  0  0  0  0  0  0  0  0  0  0  0
   37.3565   29.0726   17.7140 O   0  0  0  0  0  0  0  0  0  0  0  0
   35.5259   28.8196   19.2474 C   0  0  0  0  0  0  0  0  0  0  0  0
   34.2519   29.2050   19.7246 C   0  0  0  0  0  0  0  0  0  0  0  0
   32.0785   26.4219   20.3641 H   0  0  0  0  0  0  0  0  0  0  0  0
   31.6990   24.2399   19.3320 H   0  0  0  0  0  0  0  0  0  0  0  0
   33.5049   22.5381   19.2593 H   0  0  0  0  0  0  0  0  0  0  0  0
   35.6740   23.0554   20.3030 H   0  0  0  0  0  0  0  0  0  0  0  0
   31.9038   28.5930   22.1577 H   0  0  0  0  0  0  0  0  0  0  0  0
   30.8069   30.5058   21.0530 H   0  0  0  0  0  0  0  0  0  0  0  0
   31.8784   31.6329   19.1389 H   0  0  0  0  0  0  0  0  0  0  0  0
   33.8012   31.8405   17.5513 H   0  0  0  0  0  0  0  0  0  0  0  0
   36.0094   31.0679   16.7457 H   0  0  0  0  0  0  0  0  0  0  0  0
   37.6554   28.3448   18.2970 H   0  0  0  0  0  0  0  0  0  0  0  0
   36.0434   28.0032   19.7401 H   0  0  0  0  0  0  0  0  0  0  0  0
  1  2  2  0  0  0  0
  2  3  1  0  0  0  0
  2  4  1  0  0  0  0
  4  5  2  0  0  0  0
  4  6  1  0  0  0  0
  6  7  1  0  0  0  0
  6 16  1  0  0  0  0
  7  8  2  0  0  0  0
  7 12  1  0  0  0  0
  8  9  1  0  0  0  0
  8 27  1  0  0  0  0
  9 10  2  0  0  0  0
  9 28  1  0  0  0  0
 10 11  1  0  0  0  0
 10 29  1  0  0  0  0
 11 12  2  0  0  0  0
 11 30  1  0  0  0  0
 12 13  1  0  0  0  0
 13 14  2  0  0  0  0
 13 15  1  0  0  0  0
 16 17  2  0  0  0  0
 16 26  1  0  0  0  0
 17 18  1  0  0  0  0
 17 31  1  0  0  0  0
 18 19  2  0  0  0  0
 18 32  1  0  0  0  0
 19 20  1  0  0  0  0
 19 33  1  0  0  0  0
 20 21  2  0  0  0  0
 20 26  1  0  0  0  0
 21 22  1  0  0  0  0
 21 34  1  0  0  0  0
 22 23  2  0  0  0  0
 22 35  1  0  0  0  0
 23 24  1  0  0  0  0
 23 25  1  0  0  0  0
 24 36  1  0  0  0  0
 25 26  2  0  0  0  0
 25 37  1  0  0  0  0
M  END
$$$$
