9PP
 OpenBabel04041915363D

 33 34  0  0  1  0  0  0  0  0999 V2000
   42.0005   61.6594  169.7765 N   0  3  0  0  0  0  0  0  0  0  0  0
   40.8887   61.3373  169.0390 C   0  0  0  0  0  0  0  0  0  0  0  0
   40.6497   62.2039  168.0806 N   0  0  0  0  0  0  0  0  0  0  0  0
   41.6855   63.1181  168.1915 C   0  0  0  0  0  0  0  0  0  0  0  0
   42.0074   64.2834  167.4668 C   0  0  0  0  0  0  0  0  0  0  0  0
   41.2355   64.7613  166.4320 N   0  0  0  0  0  0  0  0  0  0  0  0
   43.1160   64.9788  167.8246 N   0  0  0  0  0  0  0  0  0  0  0  0
   43.8466   64.5607  168.8793 C   0  0  0  0  0  0  0  0  0  0  0  0
   44.9060   65.3426  169.2561 N   0  0  0  0  0  0  0  0  0  0  0  0
   43.6199   63.4711  169.6295 N   0  0  0  0  0  0  0  0  0  0  0  0
   42.5310   62.8016  169.2318 C   0  0  0  0  0  0  0  0  0  0  0  0
   42.5275   60.9374  170.9127 C   0  0  0  0  0  0  0  0  0  0  0  0
   41.4834   60.6891  172.0091 C   0  0  2  0  0  0  0  0  0  0  0  0
   41.1199   61.9723  172.7454 C   0  0  0  0  0  0  0  0  0  0  0  0
   42.0054   59.7865  172.9655 O   0  0  0  0  0  0  0  0  0  0  0  0
   42.8890   57.2188  173.4524 P   0  0  0  0  0  0  0  0  0  0  0  0
   41.7129   58.4217  172.6053 C   0  0  0  0  0  0  0  0  0  0  0  0
   42.3413   55.8762  172.9679 O   0  0  0  0  0  0  0  0  0  0  0  0
   44.2511   57.5951  172.8726 O   0  0  0  0  0  0  0  0  0  0  0  0
   42.6937   57.4901  174.9406 O   0  0  0  0  0  0  0  0  0  0  0  0
   40.2804   60.4696  169.2665 H   0  0  0  0  0  0  0  0  0  0  0  0
   41.6204   65.5107  165.8850 H   0  0  0  0  0  0  0  0  0  0  0  0
   40.4936   64.1662  166.0974 H   0  0  0  0  0  0  0  0  0  0  0  0
   45.1884   66.0643  168.6184 H   0  0  0  0  0  0  0  0  0  0  0  0
   45.5161   64.9370  169.9516 H   0  0  0  0  0  0  0  0  0  0  0  0
   43.3713   61.5011  171.3300 H   0  0  0  0  0  0  0  0  0  0  0  0
   42.9460   60.0024  170.5267 H   0  0  0  0  0  0  0  0  0  0  0  0
   40.5535   60.2760  171.5901 H   0  0  0  0  0  0  0  0  0  0  0  0
   40.4236   61.7520  173.5615 H   0  0  0  0  0  0  0  0  0  0  0  0
   40.6501   62.6993  172.0767 H   0  0  0  0  0  0  0  0  0  0  0  0
   42.0057   62.4281  173.2008 H   0  0  0  0  0  0  0  0  0  0  0  0
   41.8348   58.2565  171.5287 H   0  0  0  0  0  0  0  0  0  0  0  0
   40.6904   58.1847  172.9106 H   0  0  0  0  0  0  0  0  0  0  0  0
  1  2  2  0  0  0  0
  1 11  1  0  0  0  0
  1 12  1  0  0  0  0
  2  3  1  0  0  0  0
  2 21  1  0  0  0  0
  3  4  1  0  0  0  0
  4  5  2  0  0  0  0
  4 11  1  0  0  0  0
  5  6  1  0  0  0  0
  5  7  1  0  0  0  0
  6 22  1  0  0  0  0
  6 23  1  0  0  0  0
  7  8  2  0  0  0  0
  8  9  1  0  0  0  0
  8 10  1  0  0  0  0
  9 24  1  0  0  0  0
  9 25  1  0  0  0  0
 10 11  2  0  0  0  0
 12 13  1  0  0  0  0
 12 26  1  0  0  0  0
 12 27  1  0  0  0  0
 13 14  1  0  0  0  0
 13 15  1  0  0  0  0
 13 28  1  6  0  0  0
 14 29  1  0  0  0  0
 14 30  1  0  0  0  0
 14 31  1  0  0  0  0
 15 17  1  0  0  0  0
 16 20  2  0  0  0  0
 16 19  1  0  0  0  0
 16 18  1  0  0  0  0
 16 17  1  0  0  0  0
 17 32  1  0  0  0  0
 17 33  1  0  0  0  0
M  CHG  1   1   1
M  END
$$$$
