A2P
 OpenBabel04041914553D

 38 40  0  0  1  0  0  0  0  0999 V2000
   14.8405   14.4492    9.7109 P   0  0  0  0  0  0  0  0  0  0  0  0
   14.2707   15.2318   10.8756 O   0  0  0  0  0  0  0  0  0  0  0  0
   13.8777   13.6024    8.9117 O   0  0  0  0  0  0  0  0  0  0  0  0
   16.1250   13.6924   10.0762 O   0  0  0  0  0  0  0  0  0  0  0  0
   10.3311   16.8907    7.2558 P   0  0  0  0  0  0  0  0  0  0  0  0
   10.1723   16.3481    8.6536 O   0  0  0  0  0  0  0  0  0  0  0  0
    9.6203   18.2309    7.0485 O   0  0  0  0  0  0  0  0  0  0  0  0
   10.0523   15.8964    6.1306 O   0  0  0  0  0  0  0  0  0  0  0  0
   11.9124   17.2725    7.0978 O   0  0  0  0  0  0  0  0  0  0  0  0
   12.4843   17.5479    5.8396 C   0  0  0  0  0  0  0  0  0  0  0  0
   14.0152   17.5805    5.9520 C   0  0  1  0  0  0  0  0  0  0  0  0
   14.4324   18.6142    6.8940 O   0  0  0  0  0  0  0  0  0  0  0  0
   14.6248   16.2808    6.4718 C   0  0  1  0  0  0  0  0  0  0  0  0
   16.0080   16.2587    5.9945 O   0  0  0  0  0  0  0  0  0  0  0  0
   14.5279   16.4410    7.9857 C   0  0  1  0  0  0  0  0  0  0  0  0
   15.4330   15.5782    8.6580 O   0  0  0  0  0  0  0  0  0  0  0  0
   14.8752   17.9261    8.1213 C   0  0  2  0  0  0  0  0  0  0  0  0
   14.2974   18.6233    9.2621 N   0  3  0  0  0  0  0  0  0  0  0  0
   13.0998   18.3680    9.8891 C   0  0  0  0  0  0  0  0  0  0  0  0
   12.8691   19.2274   10.8824 N   0  0  0  0  0  0  0  0  0  0  0  0
   13.9569   20.0503   10.9012 C   0  0  0  0  0  0  0  0  0  0  0  0
   14.3020   21.1433   11.7049 C   0  0  0  0  0  0  0  0  0  0  0  0
   13.5065   21.6372   12.7361 N   0  0  0  0  0  0  0  0  0  0  0  0
   15.4788   21.7892   11.4793 N   0  0  0  0  0  0  0  0  0  0  0  0
   16.2567   21.3240   10.4828 C   0  0  0  0  0  0  0  0  0  0  0  0
   16.0354   20.3051    9.6428 N   0  0  0  0  0  0  0  0  0  0  0  0
   14.8513   19.6806    9.8974 C   0  0  0  0  0  0  0  0  0  0  0  0
   12.2099   16.7819    5.1093 H   0  0  0  0  0  0  0  0  0  0  0  0
   12.1467   18.5260    5.4846 H   0  0  0  0  0  0  0  0  0  0  0  0
   14.4451   17.8404    4.9697 H   0  0  0  0  0  0  0  0  0  0  0  0
   14.1147   15.3890    6.0949 H   0  0  0  0  0  0  0  0  0  0  0  0
   16.4168   15.5140    6.4889 H   0  0  0  0  0  0  0  0  0  0  0  0
   13.5096   16.2633    8.3101 H   0  0  0  0  0  0  0  0  0  0  0  0
   15.9697   18.0561    8.1643 H   0  0  0  0  0  0  0  0  0  0  0  0
   12.4406   17.5583    9.5960 H   0  0  0  0  0  0  0  0  0  0  0  0
   13.8374   22.4191   13.2614 H   0  0  0  0  0  0  0  0  0  0  0  0
   12.6319   21.1602   12.9044 H   0  0  0  0  0  0  0  0  0  0  0  0
   17.1893   21.8547   10.3358 H   0  0  0  0  0  0  0  0  0  0  0  0
  1 16  1  0  0  0  0
  1  4  2  0  0  0  0
  1  3  1  0  0  0  0
  1  2  1  0  0  0  0
  5  9  1  0  0  0  0
  5  8  2  0  0  0  0
  5  7  1  0  0  0  0
  5  6  1  0  0  0  0
  9 10  1  0  0  0  0
 10 11  1  0  0  0  0
 10 28  1  0  0  0  0
 10 29  1  0  0  0  0
 11 13  1  0  0  0  0
 11 12  1  0  0  0  0
 11 30  1  6  0  0  0
 12 17  1  0  0  0  0
 13 15  1  0  0  0  0
 13 14  1  0  0  0  0
 13 31  1  6  0  0  0
 14 32  1  0  0  0  0
 15 16  1  0  0  0  0
 15 17  1  0  0  0  0
 15 33  1  1  0  0  0
 17 18  1  0  0  0  0
 17 34  1  1  0  0  0
 18 19  2  0  0  0  0
 18 27  1  0  0  0  0
 19 20  1  0  0  0  0
 19 35  1  0  0  0  0
 20 21  1  0  0  0  0
 21 27  1  0  0  0  0
 21 22  2  0  0  0  0
 22 23  1  0  0  0  0
 22 24  1  0  0  0  0
 23 36  1  0  0  0  0
 23 37  1  0  0  0  0
 24 25  2  0  0  0  0
 25 26  1  0  0  0  0
 25 38  1  0  0  0  0
 26 27  2  0  0  0  0
M  CHG  1  18   1
M  END
$$$$
