A4P
 OpenBabel04041914303D

 66 70  0  0  1  0  0  0  0  0999 V2000
   -1.7600   16.0283   21.7407 N   0  3  0  0  0  0  0  0  0  0  0  0
   -2.9958   16.6492   21.6654 C   0  0  0  0  0  0  0  0  0  0  0  0
   -3.3810   16.8795   20.4317 N   0  0  0  0  0  0  0  0  0  0  0  0
   -2.3150   16.4564   19.6600 C   0  0  0  0  0  0  0  0  0  0  0  0
   -2.1384   16.4674   18.2565 C   0  0  0  0  0  0  0  0  0  0  0  0
   -3.1192   16.8941   17.3846 N   0  0  0  0  0  0  0  0  0  0  0  0
   -1.0421   15.9001   17.7144 N   0  0  0  0  0  0  0  0  0  0  0  0
   -1.2490   15.5792   23.0314 C   0  0  2  0  0  0  0  0  0  0  0  0
   -0.1193   15.4363   18.5589 C   0  0  0  0  0  0  0  0  0  0  0  0
   -0.1821   15.3278   19.9210 N   0  0  0  0  0  0  0  0  0  0  0  0
   -1.3035   15.8942   20.4332 C   0  0  0  0  0  0  0  0  0  0  0  0
    2.3609   17.0324   23.5544 O   0  0  0  0  0  0  0  0  0  0  0  0
    1.7238   16.7665   24.7794 C   0  0  0  0  0  0  0  0  0  0  0  0
    0.5099   15.8865   24.4951 C   0  0  1  0  0  0  0  0  0  0  0  0
   -0.4322   16.5742   23.6427 O   0  0  0  0  0  0  0  0  0  0  0  0
    0.8311   14.5962   23.7557 C   0  0  1  0  0  0  0  0  0  0  0  0
    1.3192   13.5456   24.6021 O   0  0  0  0  0  0  0  0  0  0  0  0
   -0.5174   14.2381   23.1215 C   0  0  1  0  0  0  0  0  0  0  0  0
   -1.2673   13.3166   23.9653 O   0  0  0  0  0  0  0  0  0  0  0  0
    3.7735   17.8422   23.4445 P   0  0  2  0  0  0  0  0  0  0  0  0
    3.9385   18.0873   21.9704 O   0  0  0  0  0  0  0  0  0  0  0  0
    4.8265   16.9617   24.1070 O   0  0  0  0  0  0  0  0  0  0  0  0
    3.4646   19.0959   24.4064 O   0  0  0  0  0  0  0  0  0  0  0  0
    2.8259   20.4736   23.8920 P   0  0  2  0  0  0  0  0  0  0  0  0
    1.8416   20.9333   24.9379 O   0  0  0  0  0  0  0  0  0  0  0  0
    2.2616   20.3129   22.5203 O   0  0  0  0  0  0  0  0  0  0  0  0
    4.0894   21.4571   24.0227 O   0  0  0  0  0  0  0  0  0  0  0  0
    5.0802   21.8083   22.8351 P   0  0  2  0  0  0  0  0  0  0  0  0
    5.3473   20.6882   21.8749 O   0  0  0  0  0  0  0  0  0  0  0  0
    6.3332   22.4178   23.4713 O   0  0  0  0  0  0  0  0  0  0  0  0
    4.3264   23.0218   22.1051 O   0  0  0  0  0  0  0  0  0  0  0  0
    3.5227   22.8605   20.7131 P   0  0  2  0  0  0  0  0  0  0  0  0
    2.5644   24.0459   20.5286 O   0  0  0  0  0  0  0  0  0  0  0  0
    2.9750   21.5216   20.3394 O   0  0  0  0  0  0  0  0  0  0  0  0
    4.6599   23.0785   19.5564 O   0  0  0  0  0  0  0  0  0  0  0  0
    8.2973   26.8141   16.1318 N   0  0  0  0  0  0  0  0  0  0  0  0
    8.4692   26.4637   14.8957 C   0  0  0  0  0  0  0  0  0  0  0  0
    9.0180   27.2959   13.9744 N   0  0  0  0  0  0  0  0  0  0  0  0
    8.1028   25.2009   14.4456 N   0  3  0  0  0  0  0  0  0  0  0  0
    7.5230   24.1890   15.2218 C   0  0  0  0  0  0  0  0  0  0  0  0
    7.2934   23.1314   14.7285 O   0  0  0  0  0  0  0  0  0  0  0  0
    6.7891   23.7356   17.5684 N   0  0  0  0  0  0  0  0  0  0  0  0
    6.6330   24.1891   18.8712 C   0  0  0  0  0  0  0  0  0  0  0  0
    6.0170   23.2682   19.9156 C   0  0  0  0  0  0  0  0  0  0  0  0
    7.0184   25.4762   19.2372 C   0  0  0  0  0  0  0  0  0  0  0  0
    7.5801   26.3579   18.3482 N   0  0  0  0  0  0  0  0  0  0  0  0
    7.7051   25.9078   17.0551 C   0  0  0  0  0  0  0  0  0  0  0  0
    7.3099   24.6030   16.6864 C   0  0  0  0  0  0  0  0  0  0  0  0
   -3.5783   16.8857   22.5529 H   0  0  0  0  0  0  0  0  0  0  0  0
   -2.8655   16.9116   16.4001 H   0  0  0  0  0  0  0  0  0  0  0  0
   -3.9516   17.3633   17.7464 H   0  0  0  0  0  0  0  0  0  0  0  0
   -2.1250   15.5181   23.7017 H   0  0  0  0  0  0  0  0  0  0  0  0
    0.7758   15.0378   18.0748 H   0  0  0  0  0  0  0  0  0  0  0  0
    2.4033   16.2453   25.4543 H   0  0  0  0  0  0  0  0  0  0  0  0
    1.3614   17.6869   25.2488 H   0  0  0  0  0  0  0  0  0  0  0  0
    0.0116   15.6477   25.4451 H   0  0  0  0  0  0  0  0  0  0  0  0
    1.5571   14.7818   22.9617 H   0  0  0  0  0  0  0  0  0  0  0  0
    0.6976   13.4609   25.3402 H   0  0  0  0  0  0  0  0  0  0  0  0
   -0.3938   13.7761   22.1440 H   0  0  0  0  0  0  0  0  0  0  0  0
   -0.7163   12.5180   24.0555 H   0  0  0  0  0  0  0  0  0  0  0  0
    9.2934   28.2336   14.2718 H   0  0  0  0  0  0  0  0  0  0  0  0
    9.1569   27.0412   13.0002 H   0  0  0  0  0  0  0  0  0  0  0  0
    8.2453   24.9628   13.4859 H   0  0  0  0  0  0  0  0  0  0  0  0
    6.5848   22.3327   19.9630 H   0  0  0  0  0  0  0  0  0  0  0  0
    6.0553   23.7669   20.8810 H   0  0  0  0  0  0  0  0  0  0  0  0
    6.9017   25.8505   20.2624 H   0  0  0  0  0  0  0  0  0  0  0  0
  1 11  1  0  0  0  0
  1  8  1  0  0  0  0
  1  2  2  0  0  0  0
  2  3  1  0  0  0  0
  2 49  1  0  0  0  0
  3  4  1  0  0  0  0
  4 11  2  0  0  0  0
  4  5  1  0  0  0  0
  5  7  2  0  0  0  0
  5  6  1  0  0  0  0
  6 50  1  0  0  0  0
  6 51  1  0  0  0  0
  7  9  1  0  0  0  0
  8 18  1  0  0  0  0
  8 15  1  0  0  0  0
  8 52  1  1  0  0  0
  9 10  2  0  0  0  0
  9 53  1  0  0  0  0
 10 11  1  0  0  0  0
 12 13  1  0  0  0  0
 13 14  1  0  0  0  0
 13 54  1  0  0  0  0
 13 55  1  0  0  0  0
 14 15  1  0  0  0  0
 14 16  1  0  0  0  0
 14 56  1  1  0  0  0
 16 18  1  0  0  0  0
 16 17  1  0  0  0  0
 16 57  1  6  0  0  0
 17 58  1  0  0  0  0
 18 19  1  0  0  0  0
 18 59  1  6  0  0  0
 19 60  1  0  0  0  0
 20 12  1  1  0  0  0
 20 23  1  0  0  0  0
 20 22  2  0  0  0  0
 20 21  1  0  0  0  0
 24 23  1  1  0  0  0
 24 27  1  0  0  0  0
 24 26  2  0  0  0  0
 24 25  1  0  0  0  0
 28 27  1  1  0  0  0
 28 31  1  0  0  0  0
 28 30  2  0  0  0  0
 28 29  1  0  0  0  0
 32 31  1  1  0  0  0
 32 35  1  0  0  0  0
 32 34  2  0  0  0  0
 32 33  1  0  0  0  0
 35 44  1  0  0  0  0
 36 47  1  0  0  0  0
 36 37  2  0  0  0  0
 37 39  1  0  0  0  0
 37 38  1  0  0  0  0
 38 61  1  0  0  0  0
 38 62  1  0  0  0  0
 39 40  1  0  0  0  0
 39 63  1  0  0  0  0
 40 48  1  0  0  0  0
 40 41  2  0  0  0  0
 42 43  1  0  0  0  0
 42 48  2  0  0  0  0
 43 44  1  0  0  0  0
 43 45  2  0  0  0  0
 44 64  1  0  0  0  0
 44 65  1  0  0  0  0
 45 46  1  0  0  0  0
 45 66  1  0  0  0  0
 46 47  2  0  0  0  0
 47 48  1  0  0  0  0
M  CHG  2   1   1  39   1
M  END
$$$$
