A76
 OpenBabel04041915003D

116119  0  0  1  0  0  0  0  0999 V2000
    3.3762    3.2142   10.8143 C   0  0  0  0  0  0  0  0  0  0  0  0
    3.0712    3.9013   11.8092 O   0  0  0  0  0  0  0  0  0  0  0  0
    3.9211    3.7433    9.6823 N   0  0  0  0  0  0  0  0  0  0  0  0
    4.2815    2.9541    8.5166 C   0  0  0  0  0  0  0  0  0  0  0  0
    4.2579    5.1652    9.7173 C   0  0  0  0  0  0  0  0  0  0  0  0
    5.7255    5.4688    9.9048 C   0  0  0  0  0  0  0  0  0  0  0  0
    6.5211    5.7176    8.7964 C   0  0  0  0  0  0  0  0  0  0  0  0
    6.1950    5.5495   11.1777 N   0  0  0  0  0  0  0  0  0  0  0  0
    7.8421    6.1030    9.0013 C   0  0  0  0  0  0  0  0  0  0  0  0
    7.4760    5.9293   11.3486 C   0  0  0  0  0  0  0  0  0  0  0  0
    8.3203    6.2241   10.3037 C   0  0  0  0  0  0  0  0  0  0  0  0
    3.1639    1.8736   10.8196 N   0  0  0  0  0  0  0  0  0  0  0  0
    2.7207    1.1651   12.0255 C   0  0  2  0  0  0  0  0  0  0  0  0
    3.8331    0.1738   12.4712 C   0  0  0  0  0  0  0  0  0  0  0  0
    3.9291   -0.9570   11.9882 O   0  0  0  0  0  0  0  0  0  0  0  0
    1.3657    0.4568   11.7904 C   0  0  0  0  0  0  0  0  0  0  0  0
    0.2728    1.4305   11.3423 C   0  0  0  0  0  0  0  0  0  0  0  0
    0.8649   -0.2931   13.0278 C   0  0  0  0  0  0  0  0  0  0  0  0
    4.6980    0.6470   13.4176 N   0  0  0  0  0  0  0  0  0  0  0  0
    5.8404   -0.0912   13.9733 C   0  0  1  0  0  0  0  0  0  0  0  0
    7.1718    0.6622   13.7408 C   0  0  0  0  0  0  0  0  0  0  0  0
    7.4853    0.8162   12.2985 C   0  0  0  0  0  0  0  0  0  0  0  0
    7.9570   -0.2831   11.5869 C   0  0  0  0  0  0  0  0  0  0  0  0
    8.2215   -0.1502   10.2333 C   0  0  0  0  0  0  0  0  0  0  0  0
    8.0038    1.0713    9.5997 C   0  0  0  0  0  0  0  0  0  0  0  0
    7.5461    2.1697   10.3193 C   0  0  0  0  0  0  0  0  0  0  0  0
    7.2802    2.0446   11.6726 C   0  0  0  0  0  0  0  0  0  0  0  0
    5.7650   -0.1793   15.5011 C   0  0  1  0  0  0  0  0  0  0  0  0
    5.7644    1.1828   15.9776 O   0  0  0  0  0  0  0  0  0  0  0  0
    4.6583   -0.7750   17.5177 O   0  0  0  0  0  0  0  0  0  0  0  0
    4.5302   -0.8392   16.0750 C   0  0  2  0  0  0  0  0  0  0  0  0
    5.4777   -3.0892   16.2070 N   0  0  0  0  0  0  0  0  0  0  0  0
    4.3695   -2.3060   15.6651 C   0  0  1  0  0  0  0  0  0  0  0  0
    3.0446   -2.8355   16.2107 C   0  0  0  0  0  0  0  0  0  0  0  0
    2.8526   -4.3080   15.9632 C   0  0  0  0  0  0  0  0  0  0  0  0
    2.4063   -4.7551   14.7147 C   0  0  0  0  0  0  0  0  0  0  0  0
    2.2447   -6.1195   14.4781 C   0  0  0  0  0  0  0  0  0  0  0  0
    2.5334   -7.0436   15.4788 C   0  0  0  0  0  0  0  0  0  0  0  0
    2.9788   -6.5999   16.7224 C   0  0  0  0  0  0  0  0  0  0  0  0
    3.1485   -5.2402   16.9672 C   0  0  0  0  0  0  0  0  0  0  0  0
    6.9384   -5.9756   16.6240 N   0  0  0  0  0  0  0  0  0  0  0  0
    7.3695   -4.6232   16.2767 C   0  0  2  0  0  0  0  0  0  0  0  0
    6.2885   -3.8840   15.4698 C   0  0  0  0  0  0  0  0  0  0  0  0
    6.1847   -3.9755   14.2357 O   0  0  0  0  0  0  0  0  0  0  0  0
    8.7038   -4.6131   15.5081 C   0  0  0  0  0  0  0  0  0  0  0  0
    9.7652   -5.4319   16.2318 C   0  0  0  0  0  0  0  0  0  0  0  0
    9.2200   -3.1805   15.3467 C   0  0  0  0  0  0  0  0  0  0  0  0
    6.7981   -6.3876   17.9119 C   0  0  0  0  0  0  0  0  0  0  0  0
    7.0951   -5.6927   18.8599 O   0  0  0  0  0  0  0  0  0  0  0  0
    6.3187   -7.6849   18.0500 N   0  0  0  0  0  0  0  0  0  0  0  0
    5.8908   -8.5187   16.9421 C   0  0  0  0  0  0  0  0  0  0  0  0
    6.0924   -8.1590   19.4150 C   0  0  0  0  0  0  0  0  0  0  0  0
    4.7005   -7.8588   19.9195 C   0  0  0  0  0  0  0  0  0  0  0  0
    3.6643   -8.7554   19.6650 C   0  0  0  0  0  0  0  0  0  0  0  0
    4.5105   -6.6872   20.5816 N   0  0  0  0  0  0  0  0  0  0  0  0
    2.3815   -8.4393   20.0968 C   0  0  0  0  0  0  0  0  0  0  0  0
    3.2574   -6.4018   20.9842 C   0  0  0  0  0  0  0  0  0  0  0  0
    2.1785   -7.2357   20.7649 C   0  0  0  0  0  0  0  0  0  0  0  0
    4.7032    3.5927    7.7415 H   0  0  0  0  0  0  0  0  0  0  0  0
    3.3802    2.4653    8.1330 H   0  0  0  0  0  0  0  0  0  0  0  0
    5.0042    2.1880    8.8062 H   0  0  0  0  0  0  0  0  0  0  0  0
    3.7149    5.6598   10.5311 H   0  0  0  0  0  0  0  0  0  0  0  0
    3.9216    5.6221    8.7816 H   0  0  0  0  0  0  0  0  0  0  0  0
    6.1159    5.6285    7.7911 H   0  0  0  0  0  0  0  0  0  0  0  0
    8.4865    6.3120    8.1596 H   0  0  0  0  0  0  0  0  0  0  0  0
    7.8180    5.9987   12.3795 H   0  0  0  0  0  0  0  0  0  0  0  0
    9.3379    6.5366   10.4939 H   0  0  0  0  0  0  0  0  0  0  0  0
    3.3028    1.3555    9.9677 H   0  0  0  0  0  0  0  0  0  0  0  0
    2.5963    1.8949   12.8359 H   0  0  0  0  0  0  0  0  0  0  0  0
    1.4963   -0.2842   10.9951 H   0  0  0  0  0  0  0  0  0  0  0  0
   -0.6799    0.9044   11.2001 H   0  0  0  0  0  0  0  0  0  0  0  0
    0.5446    1.8962   10.3905 H   0  0  0  0  0  0  0  0  0  0  0  0
    0.1189    2.2211   12.0865 H   0  0  0  0  0  0  0  0  0  0  0  0
    1.6161   -1.0049   13.3808 H   0  0  0  0  0  0  0  0  0  0  0  0
   -0.0458   -0.8589   12.7871 H   0  0  0  0  0  0  0  0  0  0  0  0
    0.6296    0.4012   13.8428 H   0  0  0  0  0  0  0  0  0  0  0  0
    4.5476    1.5978   13.7441 H   0  0  0  0  0  0  0  0  0  0  0  0
    5.9060   -1.0891   13.5461 H   0  0  0  0  0  0  0  0  0  0  0  0
    8.0009    0.1165   14.2151 H   0  0  0  0  0  0  0  0  0  0  0  0
    7.1363    1.6619   14.1943 H   0  0  0  0  0  0  0  0  0  0  0  0
    8.1128   -1.2354   12.0889 H   0  0  0  0  0  0  0  0  0  0  0  0
    8.5958   -1.0004    9.6792 H   0  0  0  0  0  0  0  0  0  0  0  0
    8.1958    1.1680    8.5373 H   0  0  0  0  0  0  0  0  0  0  0  0
    7.3935    3.1207    9.8284 H   0  0  0  0  0  0  0  0  0  0  0  0
    6.9121    2.8986   12.2387 H   0  0  0  0  0  0  0  0  0  0  0  0
    6.6591   -0.6965   15.8867 H   0  0  0  0  0  0  0  0  0  0  0  0
    5.7378    1.1822   16.9411 H   0  0  0  0  0  0  0  0  0  0  0  0
    4.7544    0.1499   17.7800 H   0  0  0  0  0  0  0  0  0  0  0  0
    3.6424   -0.2676   15.7793 H   0  0  0  0  0  0  0  0  0  0  0  0
    5.6164   -3.0671   17.2152 H   0  0  0  0  0  0  0  0  0  0  0  0
    4.3626   -2.3638   14.5722 H   0  0  0  0  0  0  0  0  0  0  0  0
    2.2208   -2.2832   15.7403 H   0  0  0  0  0  0  0  0  0  0  0  0
    2.9932   -2.6475   17.2917 H   0  0  0  0  0  0  0  0  0  0  0  0
    2.1841   -4.0382   13.9276 H   0  0  0  0  0  0  0  0  0  0  0  0
    1.8884   -6.4637   13.5105 H   0  0  0  0  0  0  0  0  0  0  0  0
    2.4164   -8.1061   15.2919 H   0  0  0  0  0  0  0  0  0  0  0  0
    3.2083   -7.3182   17.4992 H   0  0  0  0  0  0  0  0  0  0  0  0
    3.5116   -4.9129   17.9404 H   0  0  0  0  0  0  0  0  0  0  0  0
    6.7632   -6.6290   15.8837 H   0  0  0  0  0  0  0  0  0  0  0  0
    7.5139   -4.0676   17.2101 H   0  0  0  0  0  0  0  0  0  0  0  0
    8.5566   -5.0421   14.5094 H   0  0  0  0  0  0  0  0  0  0  0  0
   10.7115   -5.4028   15.6817 H   0  0  0  0  0  0  0  0  0  0  0  0
    9.4495   -6.4757   16.3140 H   0  0  0  0  0  0  0  0  0  0  0  0
    9.9337   -5.0357   17.2395 H   0  0  0  0  0  0  0  0  0  0  0  0
    8.4857   -2.5594   14.8258 H   0  0  0  0  0  0  0  0  0  0  0  0
   10.1491   -3.1698   14.7652 H   0  0  0  0  0  0  0  0  0  0  0  0
    9.4216   -2.7296   16.3259 H   0  0  0  0  0  0  0  0  0  0  0  0
    5.5366   -9.4788   17.3072 H   0  0  0  0  0  0  0  0  0  0  0  0
    6.7364   -8.6734   16.2670 H   0  0  0  0  0  0  0  0  0  0  0  0
    5.0967   -8.0205   16.3869 H   0  0  0  0  0  0  0  0  0  0  0  0
    6.8197   -7.6999   20.0934 H   0  0  0  0  0  0  0  0  0  0  0  0
    6.2594   -9.2418   19.4388 H   0  0  0  0  0  0  0  0  0  0  0  0
    3.8514   -9.6786   19.1237 H   0  0  0  0  0  0  0  0  0  0  0  0
    1.5527   -9.1153   19.9140 H   0  0  0  0  0  0  0  0  0  0  0  0
    3.1319   -5.4567   21.5014 H   0  0  0  0  0  0  0  0  0  0  0  0
    1.1926   -6.9513   21.1127 H   0  0  0  0  0  0  0  0  0  0  0  0
  1  2  2  0  0  0  0
  1  3  1  0  0  0  0
  1 12  1  0  0  0  0
  3  4  1  0  0  0  0
  3  5  1  0  0  0  0
  4 59  1  0  0  0  0
  4 60  1  0  0  0  0
  4 61  1  0  0  0  0
  5  6  1  0  0  0  0
  5 62  1  0  0  0  0
  5 63  1  0  0  0  0
  6  7  2  0  0  0  0
  6  8  1  0  0  0  0
  7  9  1  0  0  0  0
  7 64  1  0  0  0  0
  8 10  2  0  0  0  0
  9 11  2  0  0  0  0
  9 65  1  0  0  0  0
 10 11  1  0  0  0  0
 10 66  1  0  0  0  0
 11 67  1  0  0  0  0
 12 13  1  0  0  0  0
 12 68  1  0  0  0  0
 13 14  1  0  0  0  0
 13 16  1  0  0  0  0
 13 69  1  1  0  0  0
 14 15  2  0  0  0  0
 14 19  1  0  0  0  0
 16 17  1  0  0  0  0
 16 18  1  0  0  0  0
 16 70  1  0  0  0  0
 17 71  1  0  0  0  0
 17 72  1  0  0  0  0
 17 73  1  0  0  0  0
 18 74  1  0  0  0  0
 18 75  1  0  0  0  0
 18 76  1  0  0  0  0
 19 20  1  0  0  0  0
 19 77  1  0  0  0  0
 20 21  1  0  0  0  0
 20 28  1  0  0  0  0
 20 78  1  6  0  0  0
 21 22  1  0  0  0  0
 21 79  1  0  0  0  0
 21 80  1  0  0  0  0
 22 23  2  0  0  0  0
 22 27  1  0  0  0  0
 23 24  1  0  0  0  0
 23 81  1  0  0  0  0
 24 25  2  0  0  0  0
 24 82  1  0  0  0  0
 25 26  1  0  0  0  0
 25 83  1  0  0  0  0
 26 27  2  0  0  0  0
 26 84  1  0  0  0  0
 27 85  1  0  0  0  0
 28 29  1  0  0  0  0
 28 31  1  0  0  0  0
 28 86  1  1  0  0  0
 29 87  1  0  0  0  0
 30 31  1  0  0  0  0
 30 88  1  0  0  0  0
 31 33  1  0  0  0  0
 31 89  1  6  0  0  0
 32 43  1  0  0  0  0
 32 33  1  0  0  0  0
 32 90  1  0  0  0  0
 33 34  1  0  0  0  0
 33 91  1  6  0  0  0
 34 35  1  0  0  0  0
 34 92  1  0  0  0  0
 34 93  1  0  0  0  0
 35 36  2  0  0  0  0
 35 40  1  0  0  0  0
 36 37  1  0  0  0  0
 36 94  1  0  0  0  0
 37 38  2  0  0  0  0
 37 95  1  0  0  0  0
 38 39  1  0  0  0  0
 38 96  1  0  0  0  0
 39 40  2  0  0  0  0
 39 97  1  0  0  0  0
 40 98  1  0  0  0  0
 41 42  1  0  0  0  0
 41 48  1  0  0  0  0
 41 99  1  0  0  0  0
 42 43  1  0  0  0  0
 42 45  1  0  0  0  0
 42100  1  1  0  0  0
 43 44  2  0  0  0  0
 45 46  1  0  0  0  0
 45 47  1  0  0  0  0
 45101  1  0  0  0  0
 46102  1  0  0  0  0
 46103  1  0  0  0  0
 46104  1  0  0  0  0
 47105  1  0  0  0  0
 47106  1  0  0  0  0
 47107  1  0  0  0  0
 48 49  2  0  0  0  0
 48 50  1  0  0  0  0
 50 51  1  0  0  0  0
 50 52  1  0  0  0  0
 51108  1  0  0  0  0
 51109  1  0  0  0  0
 51110  1  0  0  0  0
 52 53  1  0  0  0  0
 52111  1  0  0  0  0
 52112  1  0  0  0  0
 53 54  2  0  0  0  0
 53 55  1  0  0  0  0
 54 56  1  0  0  0  0
 54113  1  0  0  0  0
 55 57  2  0  0  0  0
 56 58  2  0  0  0  0
 56114  1  0  0  0  0
 57 58  1  0  0  0  0
 57115  1  0  0  0  0
 58116  1  0  0  0  0
M  END
$$$$
