A78
 OpenBabel04041915003D

115118  0  0  1  0  0  0  0  0999 V2000
    3.5755    3.3603   10.8216 C   0  0  0  0  0  0  0  0  0  0  0  0
    3.4216    4.0158   11.8529 O   0  0  0  0  0  0  0  0  0  0  0  0
    4.0177    3.9139    9.6411 N   0  0  0  0  0  0  0  0  0  0  0  0
    4.1962    3.1624    8.4031 C   0  0  0  0  0  0  0  0  0  0  0  0
    4.3922    5.3312    9.6670 C   0  0  0  0  0  0  0  0  0  0  0  0
    5.8796    5.5821    9.5128 C   0  0  0  0  0  0  0  0  0  0  0  0
    6.4280    5.7413    8.2410 C   0  0  0  0  0  0  0  0  0  0  0  0
    6.6392    5.6302   10.6369 N   0  0  0  0  0  0  0  0  0  0  0  0
    7.7952    5.9482    8.1148 C   0  0  0  0  0  0  0  0  0  0  0  0
    7.9652    5.8445   10.4851 C   0  0  0  0  0  0  0  0  0  0  0  0
    8.5828    6.0031    9.2583 C   0  0  0  0  0  0  0  0  0  0  0  0
    3.2689    2.0359   10.7976 N   0  0  0  0  0  0  0  0  0  0  0  0
    2.8761    1.3345   12.0162 C   0  0  2  0  0  0  0  0  0  0  0  0
    4.0525    0.4230   12.4269 C   0  0  0  0  0  0  0  0  0  0  0  0
    4.1967   -0.7042   11.9477 O   0  0  0  0  0  0  0  0  0  0  0  0
    1.5819    0.5282   11.7663 C   0  0  0  0  0  0  0  0  0  0  0  0
    1.1544   -0.2351   13.0228 C   0  0  0  0  0  0  0  0  0  0  0  0
    0.4309    1.4364   11.3120 C   0  0  0  0  0  0  0  0  0  0  0  0
    4.9505    0.9676   13.3256 N   0  0  0  0  0  0  0  0  0  0  0  0
    6.1517    0.2512   13.7785 C   0  0  1  0  0  0  0  0  0  0  0  0
    7.4451    0.9927   13.3959 C   0  0  0  0  0  0  0  0  0  0  0  0
    7.7116    0.9869   11.9204 C   0  0  0  0  0  0  0  0  0  0  0  0
    7.2779    2.0411   11.1271 C   0  0  0  0  0  0  0  0  0  0  0  0
    7.5012    2.0159    9.7540 C   0  0  0  0  0  0  0  0  0  0  0  0
    8.1533    0.9287    9.1700 C   0  0  0  0  0  0  0  0  0  0  0  0
    8.5913   -0.1312    9.9667 C   0  0  0  0  0  0  0  0  0  0  0  0
    8.3715   -0.1057   11.3385 C   0  0  0  0  0  0  0  0  0  0  0  0
    6.1772    0.1321   15.2998 C   0  0  0  0  0  0  0  0  0  0  0  0
    5.0472   -0.2882   17.3543 O   0  0  0  0  0  0  0  0  0  0  0  0
    4.9185   -0.4548   15.9297 C   0  0  2  0  0  0  0  0  0  0  0  0
    5.8265   -2.7107   16.1861 N   0  0  0  0  0  0  0  0  0  0  0  0
    4.7199   -1.9546   15.6055 C   0  0  1  0  0  0  0  0  0  0  0  0
    3.3631   -2.4262   16.1733 C   0  0  0  0  0  0  0  0  0  0  0  0
    3.0983   -3.9030   16.0218 C   0  0  0  0  0  0  0  0  0  0  0  0
    3.3639   -4.7743   17.0839 C   0  0  0  0  0  0  0  0  0  0  0  0
    3.1251   -6.1385   16.9455 C   0  0  0  0  0  0  0  0  0  0  0  0
    2.6347   -6.6537   15.7497 C   0  0  0  0  0  0  0  0  0  0  0  0
    2.3777   -5.7964   14.6845 C   0  0  0  0  0  0  0  0  0  0  0  0
    2.6092   -4.4260   14.8181 C   0  0  0  0  0  0  0  0  0  0  0  0
    7.0381   -5.8300   16.6550 N   0  0  0  0  0  0  0  0  0  0  0  0
    7.5034   -4.4687   16.4030 C   0  0  2  0  0  0  0  0  0  0  0  0
    6.4496   -3.7514   15.5398 C   0  0  0  0  0  0  0  0  0  0  0  0
    6.2155   -4.0758   14.3794 O   0  0  0  0  0  0  0  0  0  0  0  0
    8.8457   -4.4735   15.6460 C   0  0  0  0  0  0  0  0  0  0  0  0
    9.3057   -3.0449   15.3290 C   0  0  0  0  0  0  0  0  0  0  0  0
    9.9209   -5.1894   16.4633 C   0  0  0  0  0  0  0  0  0  0  0  0
    6.9415   -6.3604   17.9178 C   0  0  0  0  0  0  0  0  0  0  0  0
    7.3227   -5.7384   18.9003 O   0  0  0  0  0  0  0  0  0  0  0  0
    6.4140   -7.6412   17.9777 N   0  0  0  0  0  0  0  0  0  0  0  0
    6.0047   -8.4066   16.8138 C   0  0  0  0  0  0  0  0  0  0  0  0
    6.1584   -8.2289   19.2978 C   0  0  0  0  0  0  0  0  0  0  0  0
    4.8252   -7.8271   19.8964 C   0  0  0  0  0  0  0  0  0  0  0  0
    3.7227   -8.6781   19.8366 C   0  0  0  0  0  0  0  0  0  0  0  0
    4.7443   -6.5948   20.4628 N   0  0  0  0  0  0  0  0  0  0  0  0
    2.5102   -8.2493   20.3724 C   0  0  0  0  0  0  0  0  0  0  0  0
    3.5600   -6.1974   20.9599 C   0  0  0  0  0  0  0  0  0  0  0  0
    2.4208   -6.9822   20.9410 C   0  0  0  0  0  0  0  0  0  0  0  0
    4.5709    3.7917    7.5979 H   0  0  0  0  0  0  0  0  0  0  0  0
    3.2317    2.7435    8.0922 H   0  0  0  0  0  0  0  0  0  0  0  0
    4.8894    2.3416    8.5735 H   0  0  0  0  0  0  0  0  0  0  0  0
    4.0787    5.7994   10.6069 H   0  0  0  0  0  0  0  0  0  0  0  0
    3.8325    5.8498    8.8755 H   0  0  0  0  0  0  0  0  0  0  0  0
    5.8009    5.7013    7.3574 H   0  0  0  0  0  0  0  0  0  0  0  0
    8.2424    6.0671    7.1330 H   0  0  0  0  0  0  0  0  0  0  0  0
    8.5368    5.8826   11.4086 H   0  0  0  0  0  0  0  0  0  0  0  0
    9.6490    6.1665    9.1921 H   0  0  0  0  0  0  0  0  0  0  0  0
    3.3944    1.4855    9.9626 H   0  0  0  0  0  0  0  0  0  0  0  0
    2.6979    2.0518   12.8262 H   0  0  0  0  0  0  0  0  0  0  0  0
    1.7617   -0.2017   10.9668 H   0  0  0  0  0  0  0  0  0  0  0  0
    0.2188   -0.7745   12.8453 H   0  0  0  0  0  0  0  0  0  0  0  0
    1.0021    0.4436   13.8693 H   0  0  0  0  0  0  0  0  0  0  0  0
    1.9059   -0.9746   13.3145 H   0  0  0  0  0  0  0  0  0  0  0  0
    0.6933    2.0075   10.4159 H   0  0  0  0  0  0  0  0  0  0  0  0
    0.1476    2.1471   12.0959 H   0  0  0  0  0  0  0  0  0  0  0  0
   -0.4511    0.8359   11.0639 H   0  0  0  0  0  0  0  0  0  0  0  0
    4.8451    1.9501   13.5638 H   0  0  0  0  0  0  0  0  0  0  0  0
    6.1596   -0.7550   13.3344 H   0  0  0  0  0  0  0  0  0  0  0  0
    8.3025    0.5344   13.9045 H   0  0  0  0  0  0  0  0  0  0  0  0
    7.4035    2.0276   13.7581 H   0  0  0  0  0  0  0  0  0  0  0  0
    6.7498    2.8907   11.5633 H   0  0  0  0  0  0  0  0  0  0  0  0
    7.1606    2.8439    9.1433 H   0  0  0  0  0  0  0  0  0  0  0  0
    8.3115    0.9053    8.0995 H   0  0  0  0  0  0  0  0  0  0  0  0
    9.0904   -0.9816    9.5124 H   0  0  0  0  0  0  0  0  0  0  0  0
    8.7058   -0.9450   11.9522 H   0  0  0  0  0  0  0  0  0  0  0  0
    6.3556    1.1265   15.7344 H   0  0  0  0  0  0  0  0  0  0  0  0
    7.0535   -0.4609   15.6041 H   0  0  0  0  0  0  0  0  0  0  0  0
    5.2286    0.6532   17.5216 H   0  0  0  0  0  0  0  0  0  0  0  0
    4.0394    0.1173   15.6200 H   0  0  0  0  0  0  0  0  0  0  0  0
    6.0169   -2.5396   17.1691 H   0  0  0  0  0  0  0  0  0  0  0  0
    4.7148   -2.1079   14.5207 H   0  0  0  0  0  0  0  0  0  0  0  0
    2.5557   -1.8750   15.6756 H   0  0  0  0  0  0  0  0  0  0  0  0
    3.2870   -2.1659   17.2362 H   0  0  0  0  0  0  0  0  0  0  0  0
    3.7752   -4.4038   18.0214 H   0  0  0  0  0  0  0  0  0  0  0  0
    3.3443   -6.7999   17.7735 H   0  0  0  0  0  0  0  0  0  0  0  0
    2.4673   -7.7216   15.6478 H   0  0  0  0  0  0  0  0  0  0  0  0
    2.0025   -6.1936   13.7461 H   0  0  0  0  0  0  0  0  0  0  0  0
    2.4171   -3.7696   13.9732 H   0  0  0  0  0  0  0  0  0  0  0  0
    6.7737   -6.3685   15.8490 H   0  0  0  0  0  0  0  0  0  0  0  0
    7.6197   -3.9339   17.3535 H   0  0  0  0  0  0  0  0  0  0  0  0
    8.7253   -5.0118   14.6958 H   0  0  0  0  0  0  0  0  0  0  0  0
   10.2658   -3.0544   14.8051 H   0  0  0  0  0  0  0  0  0  0  0  0
    9.4189   -2.4562   16.2458 H   0  0  0  0  0  0  0  0  0  0  0  0
    8.5917   -2.5231   14.6828 H   0  0  0  0  0  0  0  0  0  0  0  0
    9.6302   -6.2203   16.6891 H   0  0  0  0  0  0  0  0  0  0  0  0
   10.0985   -4.6713   17.4116 H   0  0  0  0  0  0  0  0  0  0  0  0
   10.8626   -5.2296   15.9089 H   0  0  0  0  0  0  0  0  0  0  0  0
    5.5988   -9.3788   17.0979 H   0  0  0  0  0  0  0  0  0  0  0  0
    6.8792   -8.5559   16.1723 H   0  0  0  0  0  0  0  0  0  0  0  0
    5.2505   -7.8510   16.2541 H   0  0  0  0  0  0  0  0  0  0  0  0
    6.9533   -7.9298   19.9920 H   0  0  0  0  0  0  0  0  0  0  0  0
    6.2205   -9.3208   19.2159 H   0  0  0  0  0  0  0  0  0  0  0  0
    3.7967   -9.6569   19.3740 H   0  0  0  0  0  0  0  0  0  0  0  0
    1.6342   -8.8874   20.3348 H   0  0  0  0  0  0  0  0  0  0  0  0
    3.5510   -5.1959   21.3803 H   0  0  0  0  0  0  0  0  0  0  0  0
    1.4926   -6.6118   21.3563 H   0  0  0  0  0  0  0  0  0  0  0  0
  1  2  2  0  0  0  0
  1  3  1  0  0  0  0
  1 12  1  0  0  0  0
  3  4  1  0  0  0  0
  3  5  1  0  0  0  0
  4 58  1  0  0  0  0
  4 59  1  0  0  0  0
  4 60  1  0  0  0  0
  5  6  1  0  0  0  0
  5 61  1  0  0  0  0
  5 62  1  0  0  0  0
  6  7  2  0  0  0  0
  6  8  1  0  0  0  0
  7  9  1  0  0  0  0
  7 63  1  0  0  0  0
  8 10  2  0  0  0  0
  9 11  2  0  0  0  0
  9 64  1  0  0  0  0
 10 11  1  0  0  0  0
 10 65  1  0  0  0  0
 11 66  1  0  0  0  0
 12 13  1  0  0  0  0
 12 67  1  0  0  0  0
 13 14  1  0  0  0  0
 13 16  1  0  0  0  0
 13 68  1  1  0  0  0
 14 15  2  0  0  0  0
 14 19  1  0  0  0  0
 16 17  1  0  0  0  0
 16 18  1  0  0  0  0
 16 69  1  0  0  0  0
 17 70  1  0  0  0  0
 17 71  1  0  0  0  0
 17 72  1  0  0  0  0
 18 73  1  0  0  0  0
 18 74  1  0  0  0  0
 18 75  1  0  0  0  0
 19 20  1  0  0  0  0
 19 76  1  0  0  0  0
 20 21  1  0  0  0  0
 20 28  1  0  0  0  0
 20 77  1  6  0  0  0
 21 22  1  0  0  0  0
 21 78  1  0  0  0  0
 21 79  1  0  0  0  0
 22 23  2  0  0  0  0
 22 27  1  0  0  0  0
 23 24  1  0  0  0  0
 23 80  1  0  0  0  0
 24 25  2  0  0  0  0
 24 81  1  0  0  0  0
 25 26  1  0  0  0  0
 25 82  1  0  0  0  0
 26 27  2  0  0  0  0
 26 83  1  0  0  0  0
 27 84  1  0  0  0  0
 28 30  1  0  0  0  0
 28 85  1  0  0  0  0
 28 86  1  0  0  0  0
 29 30  1  0  0  0  0
 29 87  1  0  0  0  0
 30 32  1  0  0  0  0
 30 88  1  6  0  0  0
 31 42  1  0  0  0  0
 31 32  1  0  0  0  0
 31 89  1  0  0  0  0
 32 33  1  0  0  0  0
 32 90  1  6  0  0  0
 33 34  1  0  0  0  0
 33 91  1  0  0  0  0
 33 92  1  0  0  0  0
 34 35  2  0  0  0  0
 34 39  1  0  0  0  0
 35 36  1  0  0  0  0
 35 93  1  0  0  0  0
 36 37  2  0  0  0  0
 36 94  1  0  0  0  0
 37 38  1  0  0  0  0
 37 95  1  0  0  0  0
 38 39  2  0  0  0  0
 38 96  1  0  0  0  0
 39 97  1  0  0  0  0
 40 41  1  0  0  0  0
 40 47  1  0  0  0  0
 40 98  1  0  0  0  0
 41 42  1  0  0  0  0
 41 44  1  0  0  0  0
 41 99  1  1  0  0  0
 42 43  2  0  0  0  0
 44 45  1  0  0  0  0
 44 46  1  0  0  0  0
 44100  1  0  0  0  0
 45101  1  0  0  0  0
 45102  1  0  0  0  0
 45103  1  0  0  0  0
 46104  1  0  0  0  0
 46105  1  0  0  0  0
 46106  1  0  0  0  0
 47 48  2  0  0  0  0
 47 49  1  0  0  0  0
 49 50  1  0  0  0  0
 49 51  1  0  0  0  0
 50107  1  0  0  0  0
 50108  1  0  0  0  0
 50109  1  0  0  0  0
 51 52  1  0  0  0  0
 51110  1  0  0  0  0
 51111  1  0  0  0  0
 52 53  2  0  0  0  0
 52 54  1  0  0  0  0
 53 55  1  0  0  0  0
 53112  1  0  0  0  0
 54 56  2  0  0  0  0
 55 57  2  0  0  0  0
 55113  1  0  0  0  0
 56 57  1  0  0  0  0
 56114  1  0  0  0  0
 57115  1  0  0  0  0
M  END
$$$$
