A85
 OpenBabel04041914183D

116119  0  0  1  0  0  0  0  0999 V2000
    3.3686    3.2428   10.6853 C   0  0  0  0  0  0  0  0  0  0  0  0
    3.1455    3.9163   11.7003 O   0  0  0  0  0  0  0  0  0  0  0  0
    3.9204    3.7802    9.5662 N   0  0  0  0  0  0  0  0  0  0  0  0
    4.3590    3.0329    8.4020 C   0  0  0  0  0  0  0  0  0  0  0  0
    4.2140    5.2005    9.5630 C   0  0  0  0  0  0  0  0  0  0  0  0
    5.5559    5.5231   10.1750 C   0  0  0  0  0  0  0  0  0  0  0  0
    5.7052    5.5736   11.5654 C   0  0  0  0  0  0  0  0  0  0  0  0
    6.5791    5.7600    9.3127 N   0  0  0  0  0  0  0  0  0  0  0  0
    6.9448    5.9061   12.1014 C   0  0  0  0  0  0  0  0  0  0  0  0
    7.7636    6.1052    9.8628 C   0  0  0  0  0  0  0  0  0  0  0  0
    7.9890    6.1884   11.2271 C   0  0  0  0  0  0  0  0  0  0  0  0
    3.0500    1.9369   10.6605 N   0  0  0  0  0  0  0  0  0  0  0  0
    2.5092    1.2659   11.8311 C   0  0  2  0  0  0  0  0  0  0  0  0
    3.5861    0.3118   12.3849 C   0  0  0  0  0  0  0  0  0  0  0  0
    3.6465   -0.8750   12.1349 O   0  0  0  0  0  0  0  0  0  0  0  0
    1.2070    0.5309   11.5236 C   0  0  0  0  0  0  0  0  0  0  0  0
    0.6888   -0.1845   12.7718 C   0  0  0  0  0  0  0  0  0  0  0  0
    0.1372    1.4934   11.0143 C   0  0  0  0  0  0  0  0  0  0  0  0
    4.4824    0.9506   13.1948 N   0  0  0  0  0  0  0  0  0  0  0  0
    5.3991    0.1957   14.0379 C   0  0  1  0  0  0  0  0  0  0  0  0
    6.7522    0.9034   14.0199 C   0  0  0  0  0  0  0  0  0  0  0  0
    7.2212    1.0028   12.5984 C   0  0  0  0  0  0  0  0  0  0  0  0
    6.9807    2.1705   11.8683 C   0  0  0  0  0  0  0  0  0  0  0  0
    7.3244    2.2229   10.5277 C   0  0  0  0  0  0  0  0  0  0  0  0
    7.8934    1.1105    9.9126 C   0  0  0  0  0  0  0  0  0  0  0  0
    8.1304   -0.0572   10.6363 C   0  0  0  0  0  0  0  0  0  0  0  0
    7.7893   -0.1145   11.9816 C   0  0  0  0  0  0  0  0  0  0  0  0
    4.7969    0.0751   15.4434 C   0  0  0  0  0  0  0  0  0  0  0  0
    5.0198    1.2498   16.1158 F   0  0  0  0  0  0  0  0  0  0  0  0
    3.4434   -0.0567   15.3755 F   0  0  0  0  0  0  0  0  0  0  0  0
    5.3555   -1.0593   16.3107 C   0  0  0  0  0  0  0  0  0  0  0  0
    6.7695   -1.1671   16.1514 O   0  0  0  0  0  0  0  0  0  0  0  0
    5.1476   -0.7826   17.6941 O   0  0  0  0  0  0  0  0  0  0  0  0
    5.6470   -3.4760   16.4224 N   0  0  0  0  0  0  0  0  0  0  0  0
    4.7227   -2.4372   15.9671 C   0  0  1  0  0  0  0  0  0  0  0  0
    3.3461   -2.7334   16.5752 C   0  0  0  0  0  0  0  0  0  0  0  0
    2.9493   -4.1671   16.2715 C   0  0  0  0  0  0  0  0  0  0  0  0
    2.5138   -4.5293   14.9914 C   0  0  0  0  0  0  0  0  0  0  0  0
    2.2448   -5.8642   14.6835 C   0  0  0  0  0  0  0  0  0  0  0  0
    2.4244   -6.8515   15.6472 C   0  0  0  0  0  0  0  0  0  0  0  0
    2.8627   -6.4972   16.9195 C   0  0  0  0  0  0  0  0  0  0  0  0
    3.1236   -5.1658   17.2358 C   0  0  0  0  0  0  0  0  0  0  0  0
    7.0562   -6.1634   16.6514 N   0  0  0  0  0  0  0  0  0  0  0  0
    7.6040   -4.8566   16.3083 C   0  0  2  0  0  0  0  0  0  0  0  0
    6.5326   -4.0667   15.5855 C   0  0  0  0  0  0  0  0  0  0  0  0
    6.4569   -3.9852   14.3505 O   0  0  0  0  0  0  0  0  0  0  0  0
    8.9040   -4.9857   15.5182 C   0  0  0  0  0  0  0  0  0  0  0  0
    9.8228   -5.9046   16.3136 C   0  0  0  0  0  0  0  0  0  0  0  0
    9.5515   -3.6134   15.2841 C   0  0  0  0  0  0  0  0  0  0  0  0
    6.8669   -6.5540   17.9537 C   0  0  0  0  0  0  0  0  0  0  0  0
    7.1832   -5.8451   18.8887 O   0  0  0  0  0  0  0  0  0  0  0  0
    6.3041   -7.7936   18.1140 N   0  0  0  0  0  0  0  0  0  0  0  0
    5.8632   -8.6381   17.0212 C   0  0  0  0  0  0  0  0  0  0  0  0
    6.0540   -8.2507   19.4787 C   0  0  0  0  0  0  0  0  0  0  0  0
    4.6695   -7.8879   19.9744 C   0  0  0  0  0  0  0  0  0  0  0  0
    4.4255   -6.6349   20.5377 C   0  0  0  0  0  0  0  0  0  0  0  0
    3.6934   -8.8227   19.8028 N   0  0  0  0  0  0  0  0  0  0  0  0
    3.1335   -6.3236   20.9566 C   0  0  0  0  0  0  0  0  0  0  0  0
    2.4524   -8.4889   20.2145 C   0  0  0  0  0  0  0  0  0  0  0  0
    2.1304   -7.2711   20.7853 C   0  0  0  0  0  0  0  0  0  0  0  0
    4.7819    3.7143    7.6620 H   0  0  0  0  0  0  0  0  0  0  0  0
    3.4937    2.5263    7.9738 H   0  0  0  0  0  0  0  0  0  0  0  0
    5.1098    2.3006    8.6955 H   0  0  0  0  0  0  0  0  0  0  0  0
    3.4291    5.7357   10.1147 H   0  0  0  0  0  0  0  0  0  0  0  0
    4.1844    5.5560    8.5280 H   0  0  0  0  0  0  0  0  0  0  0  0
    4.8706    5.3566   12.2245 H   0  0  0  0  0  0  0  0  0  0  0  0
    7.0920    5.9502   13.1746 H   0  0  0  0  0  0  0  0  0  0  0  0
    8.5585    6.3282    9.1622 H   0  0  0  0  0  0  0  0  0  0  0  0
    8.9671    6.4695   11.6054 H   0  0  0  0  0  0  0  0  0  0  0  0
    3.1629    1.4074    9.8061 H   0  0  0  0  0  0  0  0  0  0  0  0
    2.3105    2.0092   12.6159 H   0  0  0  0  0  0  0  0  0  0  0  0
    1.4024   -0.2157   10.7491 H   0  0  0  0  0  0  0  0  0  0  0  0
   -0.2505   -0.6978   12.5496 H   0  0  0  0  0  0  0  0  0  0  0  0
    0.5169    0.5263   13.5882 H   0  0  0  0  0  0  0  0  0  0  0  0
    1.4062   -0.9337   13.1184 H   0  0  0  0  0  0  0  0  0  0  0  0
    0.4851    2.0232   10.1220 H   0  0  0  0  0  0  0  0  0  0  0  0
   -0.1223    2.2366   11.7774 H   0  0  0  0  0  0  0  0  0  0  0  0
   -0.7702    0.9416   10.7479 H   0  0  0  0  0  0  0  0  0  0  0  0
    4.4700    1.9636   13.2244 H   0  0  0  0  0  0  0  0  0  0  0  0
    5.5330   -0.8057   13.6073 H   0  0  0  0  0  0  0  0  0  0  0  0
    7.5059    0.3548   14.5817 H   0  0  0  0  0  0  0  0  0  0  0  0
    6.6719    1.9107   14.4475 H   0  0  0  0  0  0  0  0  0  0  0  0
    6.5127    3.0227   12.3505 H   0  0  0  0  0  0  0  0  0  0  0  0
    7.1516    3.1304    9.9598 H   0  0  0  0  0  0  0  0  0  0  0  0
    8.1596    1.1541    8.8620 H   0  0  0  0  0  0  0  0  0  0  0  0
    8.5779   -0.9202   10.1601 H   0  0  0  0  0  0  0  0  0  0  0  0
    7.9611   -1.0264   12.5500 H   0  0  0  0  0  0  0  0  0  0  0  0
    7.1353   -0.3005   16.3713 H   0  0  0  0  0  0  0  0  0  0  0  0
    5.5392    0.0977   17.8440 H   0  0  0  0  0  0  0  0  0  0  0  0
    5.7016   -3.6860   17.4138 H   0  0  0  0  0  0  0  0  0  0  0  0
    4.6312   -2.5097   14.8762 H   0  0  0  0  0  0  0  0  0  0  0  0
    2.5866   -2.0661   16.1603 H   0  0  0  0  0  0  0  0  0  0  0  0
    3.3621   -2.5945   17.6643 H   0  0  0  0  0  0  0  0  0  0  0  0
    2.3907   -3.7656   14.2291 H   0  0  0  0  0  0  0  0  0  0  0  0
    1.8945   -6.1323   13.6914 H   0  0  0  0  0  0  0  0  0  0  0  0
    2.2231   -7.8938   15.4115 H   0  0  0  0  0  0  0  0  0  0  0  0
    3.0105   -7.2640   17.6693 H   0  0  0  0  0  0  0  0  0  0  0  0
    3.4741   -4.9073   18.2308 H   0  0  0  0  0  0  0  0  0  0  0  0
    6.8736   -6.8022   15.8963 H   0  0  0  0  0  0  0  0  0  0  0  0
    7.8326   -4.3185   17.2361 H   0  0  0  0  0  0  0  0  0  0  0  0
    8.7083   -5.4353   14.5379 H   0  0  0  0  0  0  0  0  0  0  0  0
   10.7810   -6.0386   15.8140 H   0  0  0  0  0  0  0  0  0  0  0  0
    9.3612   -6.8948   16.4252 H   0  0  0  0  0  0  0  0  0  0  0  0
    9.9939   -5.5030   17.3213 H   0  0  0  0  0  0  0  0  0  0  0  0
    8.8879   -2.9618   14.7028 H   0  0  0  0  0  0  0  0  0  0  0  0
   10.4892   -3.7161   14.7255 H   0  0  0  0  0  0  0  0  0  0  0  0
    9.7710   -3.1104   16.2334 H   0  0  0  0  0  0  0  0  0  0  0  0
    5.4366   -9.5647   17.4057 H   0  0  0  0  0  0  0  0  0  0  0  0
    6.7281   -8.8700   16.3919 H   0  0  0  0  0  0  0  0  0  0  0  0
    5.1202   -8.1105   16.4194 H   0  0  0  0  0  0  0  0  0  0  0  0
    6.7983   -7.8224   20.1631 H   0  0  0  0  0  0  0  0  0  0  0  0
    6.1806   -9.3396   19.5071 H   0  0  0  0  0  0  0  0  0  0  0  0
    5.2303   -5.9094   20.6476 H   0  0  0  0  0  0  0  0  0  0  0  0
    2.9103   -5.3611   21.4054 H   0  0  0  0  0  0  0  0  0  0  0  0
    1.6835   -9.2426   20.0625 H   0  0  0  0  0  0  0  0  0  0  0  0
    1.1097   -7.0672   21.0921 H   0  0  0  0  0  0  0  0  0  0  0  0
  1  2  2  0  0  0  0
  1  3  1  0  0  0  0
  1 12  1  0  0  0  0
  3  4  1  0  0  0  0
  3  5  1  0  0  0  0
  4 61  1  0  0  0  0
  4 62  1  0  0  0  0
  4 63  1  0  0  0  0
  5  6  1  0  0  0  0
  5 64  1  0  0  0  0
  5 65  1  0  0  0  0
  6  7  2  0  0  0  0
  6  8  1  0  0  0  0
  7  9  1  0  0  0  0
  7 66  1  0  0  0  0
  8 10  2  0  0  0  0
  9 11  2  0  0  0  0
  9 67  1  0  0  0  0
 10 11  1  0  0  0  0
 10 68  1  0  0  0  0
 11 69  1  0  0  0  0
 12 13  1  0  0  0  0
 12 70  1  0  0  0  0
 13 14  1  0  0  0  0
 13 16  1  0  0  0  0
 13 71  1  1  0  0  0
 14 15  2  0  0  0  0
 14 19  1  0  0  0  0
 16 17  1  0  0  0  0
 16 18  1  0  0  0  0
 16 72  1  0  0  0  0
 17 73  1  0  0  0  0
 17 74  1  0  0  0  0
 17 75  1  0  0  0  0
 18 76  1  0  0  0  0
 18 77  1  0  0  0  0
 18 78  1  0  0  0  0
 19 20  1  0  0  0  0
 19 79  1  0  0  0  0
 20 21  1  0  0  0  0
 20 28  1  0  0  0  0
 20 80  1  6  0  0  0
 21 22  1  0  0  0  0
 21 81  1  0  0  0  0
 21 82  1  0  0  0  0
 22 23  2  0  0  0  0
 22 27  1  0  0  0  0
 23 24  1  0  0  0  0
 23 83  1  0  0  0  0
 24 25  2  0  0  0  0
 24 84  1  0  0  0  0
 25 26  1  0  0  0  0
 25 85  1  0  0  0  0
 26 27  2  0  0  0  0
 26 86  1  0  0  0  0
 27 87  1  0  0  0  0
 28 29  1  0  0  0  0
 28 30  1  0  0  0  0
 28 31  1  0  0  0  0
 31 32  1  0  0  0  0
 31 33  1  0  0  0  0
 31 35  1  0  0  0  0
 32 88  1  0  0  0  0
 33 89  1  0  0  0  0
 34 45  1  0  0  0  0
 34 35  1  0  0  0  0
 34 90  1  0  0  0  0
 35 36  1  0  0  0  0
 35 91  1  6  0  0  0
 36 37  1  0  0  0  0
 36 92  1  0  0  0  0
 36 93  1  0  0  0  0
 37 38  2  0  0  0  0
 37 42  1  0  0  0  0
 38 39  1  0  0  0  0
 38 94  1  0  0  0  0
 39 40  2  0  0  0  0
 39 95  1  0  0  0  0
 40 41  1  0  0  0  0
 40 96  1  0  0  0  0
 41 42  2  0  0  0  0
 41 97  1  0  0  0  0
 42 98  1  0  0  0  0
 43 44  1  0  0  0  0
 43 50  1  0  0  0  0
 43 99  1  0  0  0  0
 44 45  1  0  0  0  0
 44 47  1  0  0  0  0
 44100  1  1  0  0  0
 45 46  2  0  0  0  0
 47 48  1  0  0  0  0
 47 49  1  0  0  0  0
 47101  1  0  0  0  0
 48102  1  0  0  0  0
 48103  1  0  0  0  0
 48104  1  0  0  0  0
 49105  1  0  0  0  0
 49106  1  0  0  0  0
 49107  1  0  0  0  0
 50 51  2  0  0  0  0
 50 52  1  0  0  0  0
 52 53  1  0  0  0  0
 52 54  1  0  0  0  0
 53108  1  0  0  0  0
 53109  1  0  0  0  0
 53110  1  0  0  0  0
 54 55  1  0  0  0  0
 54111  1  0  0  0  0
 54112  1  0  0  0  0
 55 56  2  0  0  0  0
 55 57  1  0  0  0  0
 56 58  1  0  0  0  0
 56113  1  0  0  0  0
 57 59  2  0  0  0  0
 58 60  2  0  0  0  0
 58114  1  0  0  0  0
 59 60  1  0  0  0  0
 59115  1  0  0  0  0
 60116  1  0  0  0  0
M  END
$$$$
