AAH
 OpenBabel04041915193D

 40 40  0  0  1  0  0  0  0  0999 V2000
  -23.4045   36.2259   17.2492 C   0  0  0  0  0  0  0  0  0  0  0  0
  -23.5397   37.6024   17.1321 C   0  0  0  0  0  0  0  0  0  0  0  0
  -22.6422   38.3730   16.3677 C   0  0  0  0  0  0  0  0  0  0  0  0
  -21.5029   37.7267   15.8498 C   0  0  0  0  0  0  0  0  0  0  0  0
  -21.2905   36.3367   16.0698 C   0  0  0  0  0  0  0  0  0  0  0  0
  -22.2555   35.6011   16.7484 C   0  0  0  0  0  0  0  0  0  0  0  0
  -22.0803   34.1578   16.9720 N   0  0  0  0  0  0  0  0  0  0  0  0
  -22.8334   33.5906   17.7500 O   0  0  0  0  0  0  0  0  0  0  0  0
  -21.1412   33.5918   16.3600 O   0  0  0  0  0  0  0  0  0  0  0  0
  -22.8821   39.8515   16.0979 C   0  0  0  0  0  0  0  0  0  0  0  0
  -24.2689   40.3213   16.3325 N   0  3  2  0  0  0  0  0  0  0  0  0
  -25.2769   39.7910   15.3134 C   0  0  0  0  0  0  0  0  0  0  0  0
  -27.2236   39.7959   15.7053 P   0  0  0  0  0  0  0  0  0  0  0  0
  -27.2833   38.7844   16.8462 O   0  0  0  0  0  0  0  0  0  0  0  0
  -27.4842   41.2424   16.0801 O   0  0  0  0  0  0  0  0  0  0  0  0
  -27.7283   39.3563   14.3471 O   0  0  0  0  0  0  0  0  0  0  0  0
  -24.4895   41.7747   16.6442 C   0  0  0  0  0  0  0  0  0  0  0  0
  -24.0793   42.1049   18.0794 C   0  0  0  0  0  0  0  0  0  0  0  0
  -24.4878   41.0210   19.0785 C   0  0  0  0  0  0  0  0  0  0  0  0
  -24.3944   41.4981   20.4970 C   0  0  0  0  0  0  0  0  0  0  0  0
  -25.5931   42.4380   20.8242 C   0  0  0  0  0  0  0  0  0  0  0  0
  -26.7282   42.0504   20.4846 O   0  0  0  0  0  0  0  0  0  0  0  0
  -25.2224   43.4811   21.4131 O   0  0  0  0  0  0  0  0  0  0  0  0
  -24.2076   35.6637   17.7204 H   0  0  0  0  0  0  0  0  0  0  0  0
  -24.4234   38.0507   17.6114 H   0  0  0  0  0  0  0  0  0  0  0  0
  -20.7806   38.2840   15.2596 H   0  0  0  0  0  0  0  0  0  0  0  0
  -20.3897   35.8792   15.6880 H   0  0  0  0  0  0  0  0  0  0  0  0
  -22.6291   40.0839   15.0568 H   0  0  0  0  0  0  0  0  0  0  0  0
  -22.2200   40.4272   16.7551 H   0  0  0  0  0  0  0  0  0  0  0  0
  -25.0587   38.7381   15.1365 H   0  0  0  0  0  0  0  0  0  0  0  0
  -25.1461   40.3448   14.3855 H   0  0  0  0  0  0  0  0  0  0  0  0
  -25.5364   42.0175   16.5220 H   0  0  0  0  0  0  0  0  0  0  0  0
  -23.9166   42.3739   15.9299 H   0  0  0  0  0  0  0  0  0  0  0  0
  -24.5391   43.0595   18.3600 H   0  0  0  0  0  0  0  0  0  0  0  0
  -22.9962   42.2640   18.1284 H   0  0  0  0  0  0  0  0  0  0  0  0
  -23.8176   40.1602   18.9647 H   0  0  0  0  0  0  0  0  0  0  0  0
  -25.5040   40.6798   18.8600 H   0  0  0  0  0  0  0  0  0  0  0  0
  -23.4437   42.0271   20.6538 H   0  0  0  0  0  0  0  0  0  0  0  0
  -24.4152   40.6640   21.1951 H   0  0  0  0  0  0  0  0  0  0  0  0
  -24.6728   39.8586   17.1454 H   0  0  0  0  0  0  0  0  0  0  0  0
  1  6  2  0  0  0  0
  1  2  1  0  0  0  0
  1 24  1  0  0  0  0
  2  3  2  0  0  0  0
  2 25  1  0  0  0  0
  3 10  1  0  0  0  0
  3  4  1  0  0  0  0
  4  5  2  0  0  0  0
  4 26  1  0  0  0  0
  5  6  1  0  0  0  0
  5 27  1  0  0  0  0
  6  7  1  0  0  0  0
  7  9  2  0  0  0  0
  7  8  2  0  0  0  0
 10 11  1  0  0  0  0
 10 28  1  0  0  0  0
 10 29  1  0  0  0  0
 11 17  1  0  0  0  0
 11 12  1  0  0  0  0
 11 40  1  1  0  0  0
 12 13  1  0  0  0  0
 12 30  1  0  0  0  0
 12 31  1  0  0  0  0
 13 16  2  0  0  0  0
 13 15  1  0  0  0  0
 13 14  1  0  0  0  0
 17 18  1  0  0  0  0
 17 32  1  0  0  0  0
 17 33  1  0  0  0  0
 18 19  1  0  0  0  0
 18 34  1  0  0  0  0
 18 35  1  0  0  0  0
 19 20  1  0  0  0  0
 19 36  1  0  0  0  0
 19 37  1  0  0  0  0
 20 21  1  0  0  0  0
 20 38  1  0  0  0  0
 20 39  1  0  0  0  0
 21 23  2  0  0  0  0
 21 22  1  0  0  0  0
M  CHG  1  11   1
M  END
$$$$
