AAN
 OpenBabel04041913563D

 19 19  0  0  0  0  0  0  0  0999 V2000
   14.0286   37.8599   36.4885 C   0  0  0  0  0  0  0  0  0  0  0  0
   13.9148   36.3830   36.0792 C   0  0  0  0  0  0  0  0  0  0  0  0
   12.8935   36.0770   35.0141 C   0  0  0  0  0  0  0  0  0  0  0  0
   13.0334   36.6466   33.7404 C   0  0  0  0  0  0  0  0  0  0  0  0
   12.0354   36.4946   32.7871 C   0  0  0  0  0  0  0  0  0  0  0  0
   10.9253   35.7005   33.0857 C   0  0  0  0  0  0  0  0  0  0  0  0
    9.8825   35.5309   32.0745 N   0  0  0  0  0  0  0  0  0  0  0  0
   10.0363   36.0945   30.9775 O   0  0  0  0  0  0  0  0  0  0  0  0
    8.9080   34.8170   32.3547 O   0  0  0  0  0  0  0  0  0  0  0  0
   10.7986   35.0686   34.3296 C   0  0  0  0  0  0  0  0  0  0  0  0
   11.7843   35.2687   35.2958 C   0  0  0  0  0  0  0  0  0  0  0  0
   14.6882   38.0334   37.5610 O   0  0  0  0  0  0  0  0  0  0  0  0
   13.4993   38.7315   35.7421 O   0  0  0  0  0  0  0  0  0  0  0  0
   13.6801   35.8049   36.9818 H   0  0  0  0  0  0  0  0  0  0  0  0
   14.8957   36.0354   35.7325 H   0  0  0  0  0  0  0  0  0  0  0  0
   13.8920   37.2834   33.5299 H   0  0  0  0  0  0  0  0  0  0  0  0
   12.1302   37.0290   31.8455 H   0  0  0  0  0  0  0  0  0  0  0  0
    9.9397   34.4491   34.5730 H   0  0  0  0  0  0  0  0  0  0  0  0
   11.6755   34.8202   36.2818 H   0  0  0  0  0  0  0  0  0  0  0  0
  1 13  2  0  0  0  0
  1 12  1  0  0  0  0
  1  2  1  0  0  0  0
  2  3  1  0  0  0  0
  2 14  1  0  0  0  0
  2 15  1  0  0  0  0
  3 11  2  0  0  0  0
  3  4  1  0  0  0  0
  4  5  2  0  0  0  0
  4 16  1  0  0  0  0
  5  6  1  0  0  0  0
  5 17  1  0  0  0  0
  6 10  2  0  0  0  0
  6  7  1  0  0  0  0
  7  9  2  0  0  0  0
  7  8  2  0  0  0  0
 10 11  1  0  0  0  0
 10 18  1  0  0  0  0
 11 19  1  0  0  0  0
M  END
$$$$
