AB2
 OpenBabel04041918003D

 88 92  0  0  1  0  0  0  0  0999 V2000
   -6.6321   16.2477   18.1553 C   0  0  0  0  0  0  0  0  0  0  0  0
   -7.7627   16.9249   18.7191 O   0  0  0  0  0  0  0  0  0  0  0  0
   -7.9638   16.6949   20.0556 C   0  0  0  0  0  0  0  0  0  0  0  0
   -9.2586   16.8910   20.5578 C   0  0  0  0  0  0  0  0  0  0  0  0
   -9.5317   16.6244   21.9030 C   0  0  0  0  0  0  0  0  0  0  0  0
   -8.4724   16.2682   22.7470 C   0  0  0  0  0  0  0  0  0  0  0  0
   -7.1806   16.0958   22.2598 C   0  0  0  0  0  0  0  0  0  0  0  0
   -6.9342   16.3078   20.9142 C   0  0  0  0  0  0  0  0  0  0  0  0
   -8.7937   15.8414   24.4354 S   0  0  0  0  0  0  0  0  0  0  0  0
  -10.1395   15.2873   24.4239 O   0  0  0  0  0  0  0  0  0  0  0  0
   -7.6954   15.0060   24.8700 O   0  0  0  0  0  0  0  0  0  0  0  0
   -8.7333   17.3250   25.3116 N   0  0  0  0  0  0  0  0  0  0  0  0
   -7.4707   18.0751   25.6839 C   0  0  0  0  0  0  0  0  0  0  0  0
   -6.7051   17.4536   26.8729 C   0  0  0  0  0  0  0  0  0  0  0  0
   -5.6412   16.4483   26.4536 C   0  0  0  0  0  0  0  0  0  0  0  0
   -6.1849   18.4767   27.9028 C   0  0  0  0  0  0  0  0  0  0  0  0
   -9.9856   17.9546   25.7954 C   0  0  0  0  0  0  0  0  0  0  0  0
  -10.1464   17.8422   27.3341 C   0  0  1  0  0  0  0  0  0  0  0  0
  -11.1670   18.7588   27.7678 O   0  0  0  0  0  0  0  0  0  0  0  0
  -10.4808   16.3917   27.7542 C   0  0  2  0  0  0  0  0  0  0  0  0
  -11.9838   16.0712   27.6272 C   0  0  0  0  0  0  0  0  0  0  0  0
  -12.2378   14.6003   27.8316 C   0  0  0  0  0  0  0  0  0  0  0  0
  -12.0342   13.6651   26.7891 C   0  0  0  0  0  0  0  0  0  0  0  0
  -12.1571   12.3284   27.0335 C   0  0  0  0  0  0  0  0  0  0  0  0
  -12.5272   11.8447   28.2557 C   0  0  0  0  0  0  0  0  0  0  0  0
  -12.7205   12.8088   29.2626 C   0  0  0  0  0  0  0  0  0  0  0  0
  -12.6065   14.1171   29.0786 C   0  0  0  0  0  0  0  0  0  0  0  0
   -9.9004   16.0906   29.0725 N   0  3  0  0  0  0  0  0  0  0  0  0
  -10.3997   16.3326   30.3160 C   0  0  0  0  0  0  0  0  0  0  0  0
   -9.4366   15.8934   31.1952 C   0  0  0  0  0  0  0  0  0  0  0  0
   -9.5563   15.8730   32.6864 C   0  0  0  0  0  0  0  0  0  0  0  0
  -10.8430   15.2771   32.9959 O   0  0  0  0  0  0  0  0  0  0  0  0
  -11.4043   15.4092   34.2149 C   0  0  0  0  0  0  0  0  0  0  0  0
  -11.4197   16.4176   34.9030 O   0  0  0  0  0  0  0  0  0  0  0  0
  -11.8075   14.1873   34.6505 N   0  0  0  0  0  0  0  0  0  0  0  0
  -13.0049   13.4719   34.2523 C   0  0  1  0  0  0  0  0  0  0  0  0
  -13.3947   13.6204   32.7558 C   0  0  2  0  0  0  0  0  0  0  0  0
  -14.3327   14.6688   32.4719 O   0  0  0  0  0  0  0  0  0  0  0  0
  -13.9604   12.2131   32.4106 C   0  0  0  0  0  0  0  0  0  0  0  0
  -13.1917   11.2820   33.2764 C   0  0  0  0  0  0  0  0  0  0  0  0
  -12.9695    9.9144   33.1421 C   0  0  0  0  0  0  0  0  0  0  0  0
  -12.2735    9.2351   34.1494 C   0  0  0  0  0  0  0  0  0  0  0  0
  -11.7827    9.9353   35.2532 C   0  0  0  0  0  0  0  0  0  0  0  0
  -11.9699   11.3154   35.3396 C   0  0  0  0  0  0  0  0  0  0  0  0
  -12.6921   11.9920   34.3603 C   0  0  0  0  0  0  0  0  0  0  0  0
   -8.3876   15.3855   30.4726 N   0  0  0  0  0  0  0  0  0  0  0  0
   -8.6654   15.5422   29.1771 N   0  0  0  0  0  0  0  0  0  0  0  0
   -6.5651   16.5179   17.1000 H   0  0  0  0  0  0  0  0  0  0  0  0
   -6.7513   15.1591   18.2284 H   0  0  0  0  0  0  0  0  0  0  0  0
   -5.6839   16.5526   18.6156 H   0  0  0  0  0  0  0  0  0  0  0  0
  -10.0584   17.2384   19.9060 H   0  0  0  0  0  0  0  0  0  0  0  0
  -10.5466   16.6966   22.2935 H   0  0  0  0  0  0  0  0  0  0  0  0
   -6.3750   15.7997   22.9251 H   0  0  0  0  0  0  0  0  0  0  0  0
   -5.9247   16.1818   20.5502 H   0  0  0  0  0  0  0  0  0  0  0  0
   -7.7811   19.0905   26.0066 H   0  0  0  0  0  0  0  0  0  0  0  0
   -6.8289   18.1937   24.8128 H   0  0  0  0  0  0  0  0  0  0  0  0
   -7.4202   16.8825   27.4403 H   0  0  0  0  0  0  0  0  0  0  0  0
   -5.0734   16.0794   27.3083 H   0  0  0  0  0  0  0  0  0  0  0  0
   -4.9510   16.8088   25.6878 H   0  0  0  0  0  0  0  0  0  0  0  0
   -6.1295   15.5701   26.0565 H   0  0  0  0  0  0  0  0  0  0  0  0
   -6.9659   19.2120   28.1365 H   0  0  0  0  0  0  0  0  0  0  0  0
   -5.2846   19.0213   27.5946 H   0  0  0  0  0  0  0  0  0  0  0  0
   -5.9604   17.9595   28.8476 H   0  0  0  0  0  0  0  0  0  0  0  0
  -10.8291   17.4767   25.3030 H   0  0  0  0  0  0  0  0  0  0  0  0
  -10.0165   19.0192   25.5058 H   0  0  0  0  0  0  0  0  0  0  0  0
   -9.2280   18.1677   27.8338 H   0  0  0  0  0  0  0  0  0  0  0  0
  -10.8801   19.6651   27.5466 H   0  0  0  0  0  0  0  0  0  0  0  0
   -9.9583   15.7266   27.0604 H   0  0  0  0  0  0  0  0  0  0  0  0
  -12.3808   16.3267   26.6422 H   0  0  0  0  0  0  0  0  0  0  0  0
  -12.5876   16.6197   28.3583 H   0  0  0  0  0  0  0  0  0  0  0  0
  -11.7752   14.0203   25.7969 H   0  0  0  0  0  0  0  0  0  0  0  0
  -11.9449   11.5856   26.2464 H   0  0  0  0  0  0  0  0  0  0  0  0
  -12.6569   10.7916   28.4821 H   0  0  0  0  0  0  0  0  0  0  0  0
  -12.9336   12.4350   30.2062 H   0  0  0  0  0  0  0  0  0  0  0  0
  -12.7641   14.8431   29.9045 H   0  0  0  0  0  0  0  0  0  0  0  0
  -11.3785   16.7333   30.5220 H   0  0  0  0  0  0  0  0  0  0  0  0
   -9.4355   16.8921   33.0860 H   0  0  0  0  0  0  0  0  0  0  0  0
   -8.7804   15.2317   33.1236 H   0  0  0  0  0  0  0  0  0  0  0  0
  -11.2570   13.7668   35.3778 H   0  0  0  0  0  0  0  0  0  0  0  0
  -13.8569   13.7201   34.9033 H   0  0  0  0  0  0  0  0  0  0  0  0
  -12.5010   13.8498   32.1762 H   0  0  0  0  0  0  0  0  0  0  0  0
  -14.4721   14.7083   31.5053 H   0  0  0  0  0  0  0  0  0  0  0  0
  -13.7477   11.9192   31.4255 H   0  0  0  0  0  0  0  0  0  0  0  0
  -15.0220   12.1439   32.4664 H   0  0  0  0  0  0  0  0  0  0  0  0
  -13.3331    9.3558   32.2835 H   0  0  0  0  0  0  0  0  0  0  0  0
  -12.1070    8.1588   34.0873 H   0  0  0  0  0  0  0  0  0  0  0  0
  -11.2557    9.4115   36.0505 H   0  0  0  0  0  0  0  0  0  0  0  0
  -11.5303   11.8521   36.1714 H   0  0  0  0  0  0  0  0  0  0  0  0
  1  2  1  0  0  0  0
  1 48  1  0  0  0  0
  1 49  1  0  0  0  0
  1 50  1  0  0  0  0
  2  3  1  0  0  0  0
  3  4  2  0  0  0  0
  3  8  1  0  0  0  0
  4  5  1  0  0  0  0
  4 51  1  0  0  0  0
  5  6  2  0  0  0  0
  5 52  1  0  0  0  0
  6  7  1  0  0  0  0
  6  9  1  0  0  0  0
  7  8  2  0  0  0  0
  7 53  1  0  0  0  0
  8 54  1  0  0  0  0
  9 10  2  0  0  0  0
  9 11  2  0  0  0  0
  9 12  1  0  0  0  0
 12 13  1  0  0  0  0
 12 17  1  0  0  0  0
 13 14  1  0  0  0  0
 13 55  1  0  0  0  0
 13 56  1  0  0  0  0
 14 15  1  0  0  0  0
 14 16  1  0  0  0  0
 14 57  1  0  0  0  0
 15 58  1  0  0  0  0
 15 59  1  0  0  0  0
 15 60  1  0  0  0  0
 16 61  1  0  0  0  0
 16 62  1  0  0  0  0
 16 63  1  0  0  0  0
 17 18  1  0  0  0  0
 17 64  1  0  0  0  0
 17 65  1  0  0  0  0
 18 19  1  0  0  0  0
 18 20  1  0  0  0  0
 18 66  1  1  0  0  0
 19 67  1  0  0  0  0
 20 21  1  0  0  0  0
 20 28  1  0  0  0  0
 20 68  1  6  0  0  0
 21 22  1  0  0  0  0
 21 69  1  0  0  0  0
 21 70  1  0  0  0  0
 22 23  2  0  0  0  0
 22 27  1  0  0  0  0
 23 24  1  0  0  0  0
 23 71  1  0  0  0  0
 24 25  2  0  0  0  0
 24 72  1  0  0  0  0
 25 26  1  0  0  0  0
 25 73  1  0  0  0  0
 26 27  2  0  0  0  0
 26 74  1  0  0  0  0
 27 75  1  0  0  0  0
 28 29  1  0  0  0  0
 28 47  2  0  0  0  0
 29 30  2  0  0  0  0
 29 76  1  0  0  0  0
 30 31  1  0  0  0  0
 30 46  1  0  0  0  0
 31 32  1  0  0  0  0
 31 77  1  0  0  0  0
 31 78  1  0  0  0  0
 32 33  1  0  0  0  0
 33 34  2  0  0  0  0
 33 35  1  0  0  0  0
 35 36  1  0  0  0  0
 35 79  1  0  0  0  0
 36 37  1  0  0  0  0
 36 45  1  0  0  0  0
 36 80  1  1  0  0  0
 37 38  1  0  0  0  0
 37 39  1  0  0  0  0
 37 81  1  6  0  0  0
 38 82  1  0  0  0  0
 39 40  1  0  0  0  0
 39 83  1  0  0  0  0
 39 84  1  0  0  0  0
 40 41  2  0  0  0  0
 40 45  1  0  0  0  0
 41 42  1  0  0  0  0
 41 85  1  0  0  0  0
 42 43  2  0  0  0  0
 42 86  1  0  0  0  0
 43 44  1  0  0  0  0
 43 87  1  0  0  0  0
 44 45  2  0  0  0  0
 44 88  1  0  0  0  0
 46 47  1  0  0  0  0
M  CHG  1  28   1
M  END
$$$$
