ABN
 OpenBabel04041917113D

 18 18  0  0  0  0  0  0  0  0999 V2000
   30.2450   16.3645   14.3387 N   0  3  0  0  0  0  0  0  0  0  0  0
   28.9221   16.4721   14.9727 C   0  0  0  0  0  0  0  0  0  0  0  0
   28.8562   15.6528   16.2198 C   0  0  0  0  0  0  0  0  0  0  0  0
   28.9809   14.2500   16.2031 C   0  0  0  0  0  0  0  0  0  0  0  0
   28.8386   13.5079   17.3764 C   0  0  0  0  0  0  0  0  0  0  0  0
   28.6455   14.1442   18.5995 C   0  0  0  0  0  0  0  0  0  0  0  0
   28.5326   15.5323   18.6235 C   0  0  0  0  0  0  0  0  0  0  0  0
   28.6505   16.2774   17.4537 C   0  0  0  0  0  0  0  0  0  0  0  0
   30.3098   16.9506   13.4936 H   0  0  0  0  0  0  0  0  0  0  0  0
   30.9736   16.6663   14.9956 H   0  0  0  0  0  0  0  0  0  0  0  0
   28.1746   16.1541   14.2368 H   0  0  0  0  0  0  0  0  0  0  0  0
   28.7696   17.5376   15.1806 H   0  0  0  0  0  0  0  0  0  0  0  0
   29.1881   13.7185   15.2764 H   0  0  0  0  0  0  0  0  0  0  0  0
   28.8569   12.4149   17.3375 H   0  0  0  0  0  0  0  0  0  0  0  0
   28.5800   13.5795   19.5227 H   0  0  0  0  0  0  0  0  0  0  0  0
   28.3249   16.0334   19.5655 H   0  0  0  0  0  0  0  0  0  0  0  0
   28.5830   17.3660   17.5298 H   0  0  0  0  0  0  0  0  0  0  0  0
   30.4518   15.3904   14.0791 H   0  0  0  0  0  0  0  0  0  0  0  0
  1  2  1  0  0  0  0
  1  9  1  0  0  0  0
  1 10  1  0  0  0  0
  1 18  1  0  0  0  0
  2  3  1  0  0  0  0
  2 11  1  0  0  0  0
  2 12  1  0  0  0  0
  3  4  2  0  0  0  0
  3  8  1  0  0  0  0
  4  5  1  0  0  0  0
  4 13  1  0  0  0  0
  5  6  2  0  0  0  0
  5 14  1  0  0  0  0
  6  7  1  0  0  0  0
  6 15  1  0  0  0  0
  7  8  2  0  0  0  0
  7 16  1  0  0  0  0
  8 17  1  0  0  0  0
M  CHG  1   1   1
M  END
$$$$
