ACD
 OpenBabel04041917233D

 53 52  0  0  0  0  0  0  0  0999 V2000
   17.0522   31.3665    6.2231 C   0  0  0  0  0  0  0  0  0  0  0  0
   16.4064   30.3970    7.2571 C   0  0  0  0  0  0  0  0  0  0  0  0
   15.3086   31.1276    8.0273 C   0  0  0  0  0  0  0  0  0  0  0  0
   14.1600   30.1870    8.3322 C   0  0  0  0  0  0  0  0  0  0  0  0
   14.0123   29.8734    9.7927 C   0  0  0  0  0  0  0  0  0  0  0  0
   12.8769   29.3372   10.2606 C   0  0  0  0  0  0  0  0  0  0  0  0
   11.7029   29.0570    9.3777 C   0  0  0  0  0  0  0  0  0  0  0  0
   10.4991   29.6047   10.0380 C   0  0  0  0  0  0  0  0  0  0  0  0
    9.5752   30.3834    9.4956 C   0  0  0  0  0  0  0  0  0  0  0  0
    9.4601   30.7971    8.0665 C   0  0  0  0  0  0  0  0  0  0  0  0
    8.0028   31.1040    7.8369 C   0  0  0  0  0  0  0  0  0  0  0  0
    7.5044   31.5893    6.7155 C   0  0  0  0  0  0  0  0  0  0  0  0
    8.3426   31.9014    5.5308 C   0  0  0  0  0  0  0  0  0  0  0  0
    8.1308   33.3125    5.0951 C   0  0  0  0  0  0  0  0  0  0  0  0
    9.0164   33.9802    4.3459 C   0  0  0  0  0  0  0  0  0  0  0  0
   10.2995   33.3816    3.8338 C   0  0  0  0  0  0  0  0  0  0  0  0
   11.5216   34.0725    4.4197 C   0  0  0  0  0  0  0  0  0  0  0  0
   11.5170   35.5656    4.0967 C   0  0  0  0  0  0  0  0  0  0  0  0
   11.4299   36.3564    5.3943 C   0  0  0  0  0  0  0  0  0  0  0  0
   11.3349   37.8466    5.1607 C   0  0  0  0  0  0  0  0  0  0  0  0
   17.6726   32.3057    6.7516 O   0  0  0  0  0  0  0  0  0  0  0  0
   16.8413   31.0148    5.0166 O   0  0  0  0  0  0  0  0  0  0  0  0
   17.1401   29.9998    7.9727 H   0  0  0  0  0  0  0  0  0  0  0  0
   15.9857   29.5349    6.7241 H   0  0  0  0  0  0  0  0  0  0  0  0
   14.9294   31.9680    7.4340 H   0  0  0  0  0  0  0  0  0  0  0  0
   15.7093   31.5433    8.9590 H   0  0  0  0  0  0  0  0  0  0  0  0
   14.2619   29.2372    7.7935 H   0  0  0  0  0  0  0  0  0  0  0  0
   13.2480   30.6722    7.9630 H   0  0  0  0  0  0  0  0  0  0  0  0
   14.8383   30.0750   10.4740 H   0  0  0  0  0  0  0  0  0  0  0  0
   12.7758   29.1421   11.3263 H   0  0  0  0  0  0  0  0  0  0  0  0
   11.5988   27.9835    9.2180 H   0  0  0  0  0  0  0  0  0  0  0  0
   11.8106   29.4960    8.3817 H   0  0  0  0  0  0  0  0  0  0  0  0
   10.3996   29.3955   11.0990 H   0  0  0  0  0  0  0  0  0  0  0  0
    8.7833   30.7179   10.1535 H   0  0  0  0  0  0  0  0  0  0  0  0
    9.7771   29.9987    7.3809 H   0  0  0  0  0  0  0  0  0  0  0  0
   10.0873   31.6791    7.8787 H   0  0  0  0  0  0  0  0  0  0  0  0
    7.3192   30.9445    8.6706 H   0  0  0  0  0  0  0  0  0  0  0  0
    6.4395   31.7852    6.6582 H   0  0  0  0  0  0  0  0  0  0  0  0
    8.0933   31.2110    4.7229 H   0  0  0  0  0  0  0  0  0  0  0  0
    9.4001   31.7463    5.7787 H   0  0  0  0  0  0  0  0  0  0  0  0
    7.2271   33.8239    5.4135 H   0  0  0  0  0  0  0  0  0  0  0  0
    8.7942   35.0151    4.0976 H   0  0  0  0  0  0  0  0  0  0  0  0
   10.3212   33.4550    2.7422 H   0  0  0  0  0  0  0  0  0  0  0  0
   10.3601   32.3160    4.0700 H   0  0  0  0  0  0  0  0  0  0  0  0
   12.4291   33.6100    4.0128 H   0  0  0  0  0  0  0  0  0  0  0  0
   11.5386   33.9124    5.5063 H   0  0  0  0  0  0  0  0  0  0  0  0
   10.6728   35.8199    3.4453 H   0  0  0  0  0  0  0  0  0  0  0  0
   12.4258   35.8298    3.5472 H   0  0  0  0  0  0  0  0  0  0  0  0
   12.3171   36.1389    5.9983 H   0  0  0  0  0  0  0  0  0  0  0  0
   10.5493   36.0284    5.9594 H   0  0  0  0  0  0  0  0  0  0  0  0
   11.2787   38.3692    6.1212 H   0  0  0  0  0  0  0  0  0  0  0  0
   10.4392   38.0920    4.5827 H   0  0  0  0  0  0  0  0  0  0  0  0
   12.2135   38.2090    4.6208 H   0  0  0  0  0  0  0  0  0  0  0  0
  1  2  1  0  0  0  0
  1 21  2  0  0  0  0
  1 22  1  0  0  0  0
  2  3  1  0  0  0  0
  2 23  1  0  0  0  0
  2 24  1  0  0  0  0
  3  4  1  0  0  0  0
  3 25  1  0  0  0  0
  3 26  1  0  0  0  0
  4  5  1  0  0  0  0
  4 27  1  0  0  0  0
  4 28  1  0  0  0  0
  5  6  2  0  0  0  0
  5 29  1  0  0  0  0
  6  7  1  0  0  0  0
  6 30  1  0  0  0  0
  7  8  1  0  0  0  0
  7 31  1  0  0  0  0
  7 32  1  0  0  0  0
  8  9  2  0  0  0  0
  8 33  1  0  0  0  0
  9 10  1  0  0  0  0
  9 34  1  0  0  0  0
 10 11  1  0  0  0  0
 10 35  1  0  0  0  0
 10 36  1  0  0  0  0
 11 12  2  0  0  0  0
 11 37  1  0  0  0  0
 12 13  1  0  0  0  0
 12 38  1  0  0  0  0
 13 14  1  0  0  0  0
 13 39  1  0  0  0  0
 13 40  1  0  0  0  0
 14 15  2  0  0  0  0
 14 41  1  0  0  0  0
 15 16  1  0  0  0  0
 15 42  1  0  0  0  0
 16 17  1  0  0  0  0
 16 43  1  0  0  0  0
 16 44  1  0  0  0  0
 17 18  1  0  0  0  0
 17 45  1  0  0  0  0
 17 46  1  0  0  0  0
 18 19  1  0  0  0  0
 18 47  1  0  0  0  0
 18 48  1  0  0  0  0
 19 20  1  0  0  0  0
 19 49  1  0  0  0  0
 19 50  1  0  0  0  0
 20 51  1  0  0  0  0
 20 52  1  0  0  0  0
 20 53  1  0  0  0  0
M  END
$$$$
