ACR
 OpenBabel04041915153D

 88 91  0  0  1  0  0  0  0  0999 V2000
   -2.3059   58.4929   91.5170 C   0  0  2  0  0  0  0  0  0  0  0  0
   -1.8632   59.5227   90.4387 C   0  0  1  0  0  0  0  0  0  0  0  0
   -0.9136   60.5738   91.0454 C   0  0  2  0  0  0  0  0  0  0  0  0
   -1.6312   61.3443   92.1822 C   0  0  1  0  0  0  0  0  0  0  0  0
   -2.3680   60.4212   93.1350 C   0  0  0  0  0  0  0  0  0  0  0  0
   -2.8368   60.9897   94.4517 C   0  0  0  0  0  0  0  0  0  0  0  0
   -2.6842   59.1528   92.8012 C   0  0  0  0  0  0  0  0  0  0  0  0
   -1.2751   58.7546   89.3711 O   0  0  0  0  0  0  0  0  0  0  0  0
   -0.4612   61.4830   90.0409 O   0  0  0  0  0  0  0  0  0  0  0  0
   -0.6273   62.0781   92.8794 O   0  0  0  0  0  0  0  0  0  0  0  0
   -3.9340   61.8417   94.1976 O   0  0  0  0  0  0  0  0  0  0  0  0
   -0.7808   53.2360   92.3005 C   0  0  2  0  0  0  0  0  0  0  0  0
   -1.0474   53.7849   90.8745 C   0  0  1  0  0  0  0  0  0  0  0  0
   -0.6925   55.2821   90.7723 C   0  0  2  0  0  0  0  0  0  0  0  0
   -1.4690   56.0516   91.8704 C   0  0  1  0  0  0  0  0  0  0  0  0
   -1.0857   55.4437   93.2301 C   0  0  1  0  0  0  0  0  0  0  0  0
   -1.7707   56.1308   94.4095 C   0  0  0  0  0  0  0  0  0  0  0  0
   -1.1455   57.5381   91.7893 N   0  3  0  0  0  0  0  0  0  0  0  0
   -0.3681   53.0284   89.8731 O   0  0  0  0  0  0  0  0  0  0  0  0
   -1.0757   55.7604   89.4806 O   0  0  0  0  0  0  0  0  0  0  0  0
   -1.4658   54.0618   93.2529 O   0  0  0  0  0  0  0  0  0  0  0  0
    3.2323   50.8192   94.9465 C   0  0  2  0  0  0  0  0  0  0  0  0
    3.0850   50.4615   93.4513 C   0  0  1  0  0  0  0  0  0  0  0  0
    2.4757   51.6485   92.6899 C   0  0  2  0  0  0  0  0  0  0  0  0
    1.1085   52.0496   93.3034 C   0  0  1  0  0  0  0  0  0  0  0  0
    1.3673   52.3525   94.7983 C   0  0  1  0  0  0  0  0  0  0  0  0
    0.0884   52.6867   95.5736 C   0  0  0  0  0  0  0  0  0  0  0  0
    4.3622   50.1000   92.8995 O   0  0  0  0  0  0  0  0  0  0  0  0
    2.3063   51.3068   91.3025 O   0  0  0  0  0  0  0  0  0  0  0  0
    0.6290   53.2142   92.5747 O   0  0  0  0  0  0  0  0  0  0  0  0
    1.9752   51.2379   95.4823 O   0  0  0  0  0  0  0  0  0  0  0  0
    0.3577   53.0432   96.9259 O   0  0  0  0  0  0  0  0  0  0  0  0
    7.2223   52.4927   98.0117 C   0  0  1  0  0  0  0  0  0  0  0  0
    7.0651   51.0257   97.5089 C   0  0  1  0  0  0  0  0  0  0  0  0
    6.2874   51.0174   96.1717 C   0  0  2  0  0  0  0  0  0  0  0  0
    4.9466   51.7487   96.3643 C   0  0  1  0  0  0  0  0  0  0  0  0
    5.2539   53.1798   96.8872 C   0  0  1  0  0  0  0  0  0  0  0  0
    3.9715   53.9803   97.1257 C   0  0  0  0  0  0  0  0  0  0  0  0
    8.0550   53.1947   97.0640 O   0  0  0  0  0  0  0  0  0  0  0  0
    8.3434   50.3754   97.3624 O   0  0  0  0  0  0  0  0  0  0  0  0
    6.0578   49.6688   95.7355 O   0  0  0  0  0  0  0  0  0  0  0  0
    4.2379   51.8341   95.1120 O   0  0  0  0  0  0  0  0  0  0  0  0
    5.9936   53.1624   98.1023 O   0  0  0  0  0  0  0  0  0  0  0  0
    3.1986   53.4208   98.1860 O   0  0  0  0  0  0  0  0  0  0  0  0
   -3.1320   57.9047   91.1004 H   0  0  0  0  0  0  0  0  0  0  0  0
   -2.7401   60.0473   90.0315 H   0  0  0  0  0  0  0  0  0  0  0  0
   -0.0085   60.0873   91.4283 H   0  0  0  0  0  0  0  0  0  0  0  0
   -2.3441   62.0641   91.7644 H   0  0  0  0  0  0  0  0  0  0  0  0
   -2.0456   61.5217   94.9881 H   0  0  0  0  0  0  0  0  0  0  0  0
   -3.1904   60.1966   95.1239 H   0  0  0  0  0  0  0  0  0  0  0  0
   -3.2896   58.5554   93.4863 H   0  0  0  0  0  0  0  0  0  0  0  0
   -0.3072   58.8163   89.3940 H   0  0  0  0  0  0  0  0  0  0  0  0
    0.1610   62.1193   90.4389 H   0  0  0  0  0  0  0  0  0  0  0  0
   -0.3251   62.8000   92.2923 H   0  0  0  0  0  0  0  0  0  0  0  0
   -3.5951   62.6485   93.7760 H   0  0  0  0  0  0  0  0  0  0  0  0
   -1.2029   52.2246   92.3559 H   0  0  0  0  0  0  0  0  0  0  0  0
   -2.1198   53.6924   90.6579 H   0  0  0  0  0  0  0  0  0  0  0  0
    0.3931   55.4176   90.8824 H   0  0  0  0  0  0  0  0  0  0  0  0
   -2.5423   55.9465   91.6875 H   0  0  0  0  0  0  0  0  0  0  0  0
   -0.0017   55.5288   93.3838 H   0  0  0  0  0  0  0  0  0  0  0  0
   -1.4577   55.6712   95.3513 H   0  0  0  0  0  0  0  0  0  0  0  0
   -2.8578   56.0276   94.3482 H   0  0  0  0  0  0  0  0  0  0  0  0
   -1.5154   57.1920   94.4748 H   0  0  0  0  0  0  0  0  0  0  0  0
   -0.4670   57.6506   91.0316 H   0  0  0  0  0  0  0  0  0  0  0  0
    0.5831   52.9969   90.0870 H   0  0  0  0  0  0  0  0  0  0  0  0
   -0.7342   56.6409   89.2593 H   0  0  0  0  0  0  0  0  0  0  0  0
    3.5299   49.9060   95.4758 H   0  0  0  0  0  0  0  0  0  0  0  0
    2.4223   49.5923   93.3416 H   0  0  0  0  0  0  0  0  0  0  0  0
    3.1565   52.5088   92.7047 H   0  0  0  0  0  0  0  0  0  0  0  0
    0.4210   51.1991   93.1910 H   0  0  0  0  0  0  0  0  0  0  0  0
    2.0366   53.2143   94.8642 H   0  0  0  0  0  0  0  0  0  0  0  0
   -0.6034   51.8412   95.5849 H   0  0  0  0  0  0  0  0  0  0  0  0
   -0.4162   53.5465   95.1521 H   0  0  0  0  0  0  0  0  0  0  0  0
    4.2088   49.7279   92.0130 H   0  0  0  0  0  0  0  0  0  0  0  0
    3.2005   51.1731   90.9360 H   0  0  0  0  0  0  0  0  0  0  0  0
    0.9566   52.3636   97.2934 H   0  0  0  0  0  0  0  0  0  0  0  0
    7.7479   52.4660   98.9412 H   0  0  0  0  0  0  0  0  0  0  0  0
    6.4993   50.4406   98.2377 H   0  0  0  0  0  0  0  0  0  0  0  0
    6.8844   51.4910   95.3782 H   0  0  0  0  0  0  0  0  0  0  0  0
    4.3456   51.2058   97.1075 H   0  0  0  0  0  0  0  0  0  0  0  0
    5.8362   53.7167   96.1158 H   0  0  0  0  0  0  0  0  0  0  0  0
    3.3463   54.0147   96.2348 H   0  0  0  0  0  0  0  0  0  0  0  0
    4.2035   55.0134   97.3950 H   0  0  0  0  0  0  0  0  0  0  0  0
    8.3093   54.0057   97.5447 H   0  0  0  0  0  0  0  0  0  0  0  0
    8.8420   50.8794   96.6970 H   0  0  0  0  0  0  0  0  0  0  0  0
    5.7101   49.7216   94.8243 H   0  0  0  0  0  0  0  0  0  0  0  0
    3.7510   53.4911   98.9878 H   0  0  0  0  0  0  0  0  0  0  0  0
   -0.6586   57.8505   92.6386 H   0  0  0  0  0  0  0  0  0  0  0  0
  1  2  1  0  0  0  0
  1  7  1  0  0  0  0
  1 18  1  0  0  0  0
  1 45  1  6  0  0  0
  2  3  1  0  0  0  0
  2  8  1  0  0  0  0
  2 46  1  6  0  0  0
  3  4  1  0  0  0  0
  3  9  1  0  0  0  0
  3 47  1  1  0  0  0
  4  5  1  0  0  0  0
  4 10  1  0  0  0  0
  4 48  1  6  0  0  0
  5  6  1  0  0  0  0
  5  7  2  0  0  0  0
  6 11  1  0  0  0  0
  6 49  1  0  0  0  0
  6 50  1  0  0  0  0
  7 51  1  0  0  0  0
  8 52  1  0  0  0  0
  9 53  1  0  0  0  0
 10 54  1  0  0  0  0
 11 55  1  0  0  0  0
 12 13  1  0  0  0  0
 12 21  1  0  0  0  0
 12 30  1  0  0  0  0
 12 56  1  1  0  0  0
 13 14  1  0  0  0  0
 13 19  1  0  0  0  0
 13 57  1  6  0  0  0
 14 15  1  0  0  0  0
 14 20  1  0  0  0  0
 14 58  1  1  0  0  0
 15 16  1  0  0  0  0
 15 18  1  0  0  0  0
 15 59  1  6  0  0  0
 16 17  1  0  0  0  0
 16 21  1  0  0  0  0
 16 60  1  1  0  0  0
 17 61  1  0  0  0  0
 17 62  1  0  0  0  0
 17 63  1  0  0  0  0
 18 64  1  0  0  0  0
 18 88  1  0  0  0  0
 19 65  1  0  0  0  0
 20 66  1  0  0  0  0
 22 23  1  0  0  0  0
 22 31  1  0  0  0  0
 22 42  1  0  0  0  0
 22 67  1  1  0  0  0
 23 24  1  0  0  0  0
 23 28  1  0  0  0  0
 23 68  1  6  0  0  0
 24 25  1  0  0  0  0
 24 29  1  0  0  0  0
 24 69  1  1  0  0  0
 25 26  1  0  0  0  0
 25 30  1  0  0  0  0
 25 70  1  6  0  0  0
 26 27  1  0  0  0  0
 26 31  1  0  0  0  0
 26 71  1  1  0  0  0
 27 32  1  0  0  0  0
 27 72  1  0  0  0  0
 27 73  1  0  0  0  0
 28 74  1  0  0  0  0
 29 75  1  0  0  0  0
 32 76  1  0  0  0  0
 33 34  1  0  0  0  0
 33 39  1  0  0  0  0
 33 43  1  0  0  0  0
 33 77  1  1  0  0  0
 34 35  1  0  0  0  0
 34 40  1  0  0  0  0
 34 78  1  1  0  0  0
 35 36  1  0  0  0  0
 35 41  1  0  0  0  0
 35 79  1  6  0  0  0
 36 37  1  0  0  0  0
 36 42  1  0  0  0  0
 36 80  1  1  0  0  0
 37 38  1  0  0  0  0
 37 43  1  0  0  0  0
 37 81  1  6  0  0  0
 38 44  1  0  0  0  0
 38 82  1  0  0  0  0
 38 83  1  0  0  0  0
 39 84  1  0  0  0  0
 40 85  1  0  0  0  0
 41 86  1  0  0  0  0
 44 87  1  0  0  0  0
M  CHG  1  18   1
M  END
$$$$
