ADE
 OpenBabel04041915123D

 15 16  0  0  0  0  0  0  0  0999 V2000
   -7.2608  -38.5100   -0.5516 N   0  3  0  0  0  0  0  0  0  0  0  0
   -7.1523  -37.9522   -1.7957 C   0  0  0  0  0  0  0  0  0  0  0  0
   -6.1817  -37.0648   -1.8579 N   0  0  0  0  0  0  0  0  0  0  0  0
   -5.6357  -37.0492   -0.5856 C   0  0  0  0  0  0  0  0  0  0  0  0
   -4.5820  -36.3278   -0.0054 C   0  0  0  0  0  0  0  0  0  0  0  0
   -3.8430  -35.4072   -0.7126 N   0  0  0  0  0  0  0  0  0  0  0  0
   -4.2907  -36.5532    1.3005 N   0  0  0  0  0  0  0  0  0  0  0  0
   -5.0288  -37.4623    1.9798 C   0  0  0  0  0  0  0  0  0  0  0  0
   -6.0580  -38.2111    1.5292 N   0  0  0  0  0  0  0  0  0  0  0  0
   -6.2996  -37.9462    0.2357 C   0  0  0  0  0  0  0  0  0  0  0  0
   -7.9244  -39.2107   -0.2570 H   0  0  0  0  0  0  0  0  0  0  0  0
   -7.8066  -38.2324   -2.6125 H   0  0  0  0  0  0  0  0  0  0  0  0
   -3.0981  -34.9153   -0.2505 H   0  0  0  0  0  0  0  0  0  0  0  0
   -4.0715  -35.2497   -1.6848 H   0  0  0  0  0  0  0  0  0  0  0  0
   -4.7620  -37.6124    3.0232 H   0  0  0  0  0  0  0  0  0  0  0  0
  1  2  2  0  0  0  0
  1 10  1  0  0  0  0
  1 11  1  0  0  0  0
  2  3  1  0  0  0  0
  2 12  1  0  0  0  0
  3  4  1  0  0  0  0
  4  5  2  0  0  0  0
  4 10  1  0  0  0  0
  5  6  1  0  0  0  0
  5  7  1  0  0  0  0
  6 13  1  0  0  0  0
  6 14  1  0  0  0  0
  7  8  2  0  0  0  0
  8  9  1  0  0  0  0
  8 15  1  0  0  0  0
  9 10  2  0  0  0  0
M  CHG  1   1   1
M  END
$$$$
