ADP
 OpenBabel04041914563D

 39 41  0  0  1  0  0  0  0  0999 V2000
   14.5788   14.3927    9.7188 P   0  0  0  0  0  0  0  0  0  0  0  0
   14.5645   15.7943   10.3288 O   0  0  0  0  0  0  0  0  0  0  0  0
   15.9467   13.7280    9.8489 O   0  0  0  0  0  0  0  0  0  0  0  0
   13.3935   13.5732   10.1979 O   0  0  0  0  0  0  0  0  0  0  0  0
   14.0730   13.6832    6.8972 P   0  0  2  0  0  0  0  0  0  0  0  0
   14.3230   12.2066    7.0922 O   0  0  0  0  0  0  0  0  0  0  0  0
   14.6432   14.3251    5.6361 O   0  0  0  0  0  0  0  0  0  0  0  0
   14.3188   14.6483    8.1414 O   0  0  0  0  0  0  0  0  0  0  0  0
   12.4416   13.7860    6.6932 O   0  0  0  0  0  0  0  0  0  0  0  0
   11.8154   15.0617    6.6204 C   0  0  0  0  0  0  0  0  0  0  0  0
   10.8855   15.1477    5.4001 C   0  0  1  0  0  0  0  0  0  0  0  0
   11.6348   15.0776    4.1639 O   0  0  0  0  0  0  0  0  0  0  0  0
    9.8120   14.0505    5.3328 C   0  0  1  0  0  0  0  0  0  0  0  0
    8.6055   14.5731    4.7152 O   0  0  0  0  0  0  0  0  0  0  0  0
   10.4214   13.0131    4.4064 C   0  0  1  0  0  0  0  0  0  0  0  0
    9.4041   12.2395    3.7363 O   0  0  0  0  0  0  0  0  0  0  0  0
   11.2596   13.8881    3.4620 C   0  0  2  0  0  0  0  0  0  0  0  0
   12.4375   13.2426    2.8898 N   0  3  0  0  0  0  0  0  0  0  0  0
   13.2720   12.3614    3.5251 C   0  0  0  0  0  0  0  0  0  0  0  0
   14.2004   11.8876    2.7179 N   0  0  0  0  0  0  0  0  0  0  0  0
   14.0162   12.5557    1.5376 C   0  0  0  0  0  0  0  0  0  0  0  0
   14.7194   12.4966    0.3175 C   0  0  0  0  0  0  0  0  0  0  0  0
   15.8106   11.6895    0.1188 N   0  0  0  0  0  0  0  0  0  0  0  0
   14.2484   13.2138   -0.7147 N   0  0  0  0  0  0  0  0  0  0  0  0
   13.1379   13.9734   -0.5215 C   0  0  0  0  0  0  0  0  0  0  0  0
   12.3827   14.0994    0.5880 N   0  0  0  0  0  0  0  0  0  0  0  0
   12.8863   13.3694    1.6081 C   0  0  0  0  0  0  0  0  0  0  0  0
   12.5516   15.8703    6.5744 H   0  0  0  0  0  0  0  0  0  0  0  0
   11.2185   15.1886    7.5264 H   0  0  0  0  0  0  0  0  0  0  0  0
   10.3993   16.1299    5.4028 H   0  0  0  0  0  0  0  0  0  0  0  0
    9.5308   13.6476    6.3102 H   0  0  0  0  0  0  0  0  0  0  0  0
    7.9517   13.8515    4.7666 H   0  0  0  0  0  0  0  0  0  0  0  0
   11.0383   12.3271    4.9848 H   0  0  0  0  0  0  0  0  0  0  0  0
    8.9045   12.8631    3.1812 H   0  0  0  0  0  0  0  0  0  0  0  0
   10.6322   14.2144    2.6186 H   0  0  0  0  0  0  0  0  0  0  0  0
   13.1738   12.0950    4.5720 H   0  0  0  0  0  0  0  0  0  0  0  0
   16.3098   11.7484   -0.7631 H   0  0  0  0  0  0  0  0  0  0  0  0
   16.1925   11.2143    0.9232 H   0  0  0  0  0  0  0  0  0  0  0  0
   12.8027   14.5304   -1.3807 H   0  0  0  0  0  0  0  0  0  0  0  0
  1  2  2  0  0  0  0
  1  3  1  0  0  0  0
  1  4  1  0  0  0  0
  1  8  1  0  0  0  0
  5  6  2  1  0  0  0
  5  7  1  0  0  0  0
  5  8  1  0  0  0  0
  5  9  1  0  0  0  0
  9 10  1  0  0  0  0
 10 11  1  0  0  0  0
 10 28  1  0  0  0  0
 10 29  1  0  0  0  0
 11 12  1  0  0  0  0
 11 13  1  0  0  0  0
 11 30  1  1  0  0  0
 12 17  1  0  0  0  0
 13 14  1  0  0  0  0
 13 15  1  0  0  0  0
 13 31  1  1  0  0  0
 14 32  1  0  0  0  0
 15 16  1  0  0  0  0
 15 17  1  0  0  0  0
 15 33  1  1  0  0  0
 16 34  1  0  0  0  0
 17 18  1  0  0  0  0
 17 35  1  6  0  0  0
 18 19  2  0  0  0  0
 18 27  1  0  0  0  0
 19 20  1  0  0  0  0
 19 36  1  0  0  0  0
 20 21  1  0  0  0  0
 21 22  2  0  0  0  0
 21 27  1  0  0  0  0
 22 23  1  0  0  0  0
 22 24  1  0  0  0  0
 23 37  1  0  0  0  0
 23 38  1  0  0  0  0
 24 25  2  0  0  0  0
 25 26  1  0  0  0  0
 25 39  1  0  0  0  0
 26 27  2  0  0  0  0
M  CHG  1  18   1
M  END
$$$$
