ADP
 OpenBabel04041916013D

 39 41  0  0  1  0  0  0  0  0999 V2000
   36.3724    3.6764   13.1182 P   0  0  0  0  0  0  0  0  0  0  0  0
   34.8418    3.6916   13.2074 O   0  0  0  0  0  0  0  0  0  0  0  0
   36.8678    2.8096   11.9634 O   0  0  0  0  0  0  0  0  0  0  0  0
   37.0114    3.3754   14.4666 O   0  0  0  0  0  0  0  0  0  0  0  0
   37.9357    6.2192   13.0624 P   0  0  2  0  0  0  0  0  0  0  0  0
   38.0361    7.2577   11.9460 O   0  0  0  0  0  0  0  0  0  0  0  0
   39.2419    5.6468   13.5714 O   0  0  0  0  0  0  0  0  0  0  0  0
   36.7541    5.1966   12.7345 O   0  0  0  0  0  0  0  0  0  0  0  0
   37.2947    7.0878   14.2967 O   0  0  0  0  0  0  0  0  0  0  0  0
   36.8730    6.4212   15.4746 C   0  0  0  0  0  0  0  0  0  0  0  0
   36.6916    7.5115   16.5416 C   0  0  1  0  0  0  0  0  0  0  0  0
   35.8879    7.0398   17.6564 O   0  0  0  0  0  0  0  0  0  0  0  0
   38.0084    8.0648   17.1353 C   0  0  1  0  0  0  0  0  0  0  0  0
   37.8642    9.4902   17.3899 O   0  0  0  0  0  0  0  0  0  0  0  0
   38.1033    7.3573   18.4851 C   0  0  1  0  0  0  0  0  0  0  0  0
   38.8718    8.0654   19.4759 O   0  0  0  0  0  0  0  0  0  0  0  0
   36.6271    7.2974   18.8505 C   0  0  2  0  0  0  0  0  0  0  0  0
   36.2521    6.3561   19.8764 N   0  3  0  0  0  0  0  0  0  0  0  0
   35.3913    6.6670   20.9125 C   0  0  0  0  0  0  0  0  0  0  0  0
   35.2210    5.6690   21.7482 N   0  0  0  0  0  0  0  0  0  0  0  0
   36.0036    4.6572   21.2174 C   0  0  0  0  0  0  0  0  0  0  0  0
   36.2441    3.3501   21.6515 C   0  0  0  0  0  0  0  0  0  0  0  0
   35.7102    2.8627   22.8313 N   0  0  0  0  0  0  0  0  0  0  0  0
   37.0925    2.5673   20.9424 N   0  0  0  0  0  0  0  0  0  0  0  0
   37.6544    3.1054   19.8282 C   0  0  0  0  0  0  0  0  0  0  0  0
   37.5204    4.3536   19.3476 N   0  0  0  0  0  0  0  0  0  0  0  0
   36.6613    5.0847   20.0695 C   0  0  0  0  0  0  0  0  0  0  0  0
   37.5969    5.6710   15.8010 H   0  0  0  0  0  0  0  0  0  0  0  0
   35.9115    5.9370   15.2912 H   0  0  0  0  0  0  0  0  0  0  0  0
   36.1299    8.3431   16.0953 H   0  0  0  0  0  0  0  0  0  0  0  0
   38.8968    7.9320   16.5112 H   0  0  0  0  0  0  0  0  0  0  0  0
   37.7361    9.8720   16.4967 H   0  0  0  0  0  0  0  0  0  0  0  0
   38.5472    6.3723   18.3435 H   0  0  0  0  0  0  0  0  0  0  0  0
   38.5234    8.9759   19.4877 H   0  0  0  0  0  0  0  0  0  0  0  0
   36.3054    8.2864   19.2115 H   0  0  0  0  0  0  0  0  0  0  0  0
   34.9068    7.6312   20.9823 H   0  0  0  0  0  0  0  0  0  0  0  0
   35.8320    1.8838   23.0309 H   0  0  0  0  0  0  0  0  0  0  0  0
   35.0200    3.4469   23.2885 H   0  0  0  0  0  0  0  0  0  0  0  0
   38.3090    2.4511   19.2552 H   0  0  0  0  0  0  0  0  0  0  0  0
  1  2  2  0  0  0  0
  1  3  1  0  0  0  0
  1  4  1  0  0  0  0
  1  8  1  0  0  0  0
  5  6  2  6  0  0  0
  5  7  1  0  0  0  0
  5  8  1  0  0  0  0
  5  9  1  0  0  0  0
  9 10  1  0  0  0  0
 10 11  1  0  0  0  0
 10 28  1  0  0  0  0
 10 29  1  0  0  0  0
 11 12  1  0  0  0  0
 11 13  1  0  0  0  0
 11 30  1  6  0  0  0
 12 17  1  0  0  0  0
 13 14  1  0  0  0  0
 13 15  1  0  0  0  0
 13 31  1  6  0  0  0
 14 32  1  0  0  0  0
 15 16  1  0  0  0  0
 15 17  1  0  0  0  0
 15 33  1  6  0  0  0
 16 34  1  0  0  0  0
 17 18  1  0  0  0  0
 17 35  1  1  0  0  0
 18 19  2  0  0  0  0
 18 27  1  0  0  0  0
 19 20  1  0  0  0  0
 19 36  1  0  0  0  0
 20 21  1  0  0  0  0
 21 22  2  0  0  0  0
 21 27  1  0  0  0  0
 22 23  1  0  0  0  0
 22 24  1  0  0  0  0
 23 37  1  0  0  0  0
 23 38  1  0  0  0  0
 24 25  2  0  0  0  0
 25 26  1  0  0  0  0
 25 39  1  0  0  0  0
 26 27  2  0  0  0  0
M  CHG  1  18   1
M  END
$$$$
