AHF
 OpenBabel04041914443D

 85 89  0  0  1  0  0  0  0  0999 V2000
   11.5009   23.8344    6.2934 N   0  0  0  0  0  0  0  0  0  0  0  0
   11.9831   22.2253    6.5413 S   0  0  0  0  0  0  0  0  0  0  0  0
   13.6407   22.2626    6.2814 N   0  0  0  0  0  0  0  0  0  0  0  0
   14.0965   22.3184    4.8537 C   0  0  1  0  0  0  0  0  0  0  0  0
   14.2231   23.7582    4.2991 C   0  0  1  0  0  0  0  0  0  0  0  0
   13.2449   24.8302    4.8286 C   0  0  2  0  0  0  0  0  0  0  0  0
   11.7359   24.5014    4.9434 C   0  0  1  0  0  0  0  0  0  0  0  0
   10.1064   24.0374    6.8025 C   0  0  0  0  0  0  0  0  0  0  0  0
    9.7150   25.4119    7.3022 C   0  0  0  0  0  0  0  0  0  0  0  0
    8.3657   25.7788    7.1590 C   0  0  0  0  0  0  0  0  0  0  0  0
    7.8655   26.9330    7.7602 C   0  0  0  0  0  0  0  0  0  0  0  0
    8.7015   27.7572    8.5161 C   0  0  0  0  0  0  0  0  0  0  0  0
   10.0527   27.4078    8.6507 C   0  0  0  0  0  0  0  0  0  0  0  0
   10.5582   26.2420    8.0514 C   0  0  0  0  0  0  0  0  0  0  0  0
   11.3590   21.4214    5.5197 O   0  0  0  0  0  0  0  0  0  0  0  0
   15.0714   20.4970    3.5369 O   0  0  0  0  0  0  0  0  0  0  0  0
   16.0288   19.5439    3.2983 C   0  0  0  0  0  0  0  0  0  0  0  0
   16.1853   19.1583    1.9631 C   0  0  0  0  0  0  0  0  0  0  0  0
   17.1076   18.1695    1.6061 C   0  0  0  0  0  0  0  0  0  0  0  0
   17.8700   17.5414    2.5897 C   0  0  0  0  0  0  0  0  0  0  0  0
   17.6997   17.9007    3.9260 C   0  0  0  0  0  0  0  0  0  0  0  0
   16.7788   18.8942    4.2806 C   0  0  0  0  0  0  0  0  0  0  0  0
   14.4943   22.8408    7.3491 C   0  0  0  0  0  0  0  0  0  0  0  0
   15.4125   21.8734    8.0945 C   0  0  0  0  0  0  0  0  0  0  0  0
   14.9221   20.9606    9.0435 C   0  0  0  0  0  0  0  0  0  0  0  0
   15.7916   20.1400    9.7909 C   0  0  0  0  0  0  0  0  0  0  0  0
   17.1747   20.2183    9.5976 C   0  0  0  0  0  0  0  0  0  0  0  0
   17.6719   21.1219    8.6497 C   0  0  0  0  0  0  0  0  0  0  0  0
   16.8033   21.9410    7.9131 C   0  0  0  0  0  0  0  0  0  0  0  0
   15.5488   24.2811    4.5454 O   0  0  0  0  0  0  0  0  0  0  0  0
   13.4215   25.9961    3.9905 O   0  0  0  0  0  0  0  0  0  0  0  0
   11.1219   23.8413    3.6806 C   0  0  0  0  0  0  0  0  0  0  0  0
    9.7033   23.6797    3.7823 O   0  0  0  0  0  0  0  0  0  0  0  0
    8.8177   24.5057    3.1519 C   0  0  0  0  0  0  0  0  0  0  0  0
    9.1120   25.5528    2.2871 C   0  0  0  0  0  0  0  0  0  0  0  0
    8.0716   26.2953    1.7060 C   0  0  0  0  0  0  0  0  0  0  0  0
    6.7391   26.0061    1.9985 C   0  0  0  0  0  0  0  0  0  0  0  0
    6.4366   24.9627    2.8664 C   0  0  0  0  0  0  0  0  0  0  0  0
    7.4754   24.2172    3.4310 C   0  0  0  0  0  0  0  0  0  0  0  0
   11.7786   21.9218    7.9390 O   0  0  0  0  0  0  0  0  0  0  0  0
   15.3481   21.4251    4.6072 C   0  0  0  0  0  0  0  0  0  0  0  0
   18.1555   19.3758   10.3429 C   0  0  0  0  0  0  0  0  0  0  0  0
   17.6046   18.8333   11.4596 O   0  0  0  0  0  0  0  0  0  0  0  0
   19.3159   19.2333    9.9861 O   0  0  0  0  0  0  0  0  0  0  0  0
   18.5142   18.0322   12.2230 C   0  0  0  0  0  0  0  0  0  0  0  0
    8.1277   28.9779    9.1817 C   0  0  0  0  0  0  0  0  0  0  0  0
    7.5970   29.8328    8.1768 O   0  0  0  0  0  0  0  0  0  0  0  0
   13.3064   21.8497    4.2575 H   0  0  0  0  0  0  0  0  0  0  0  0
   14.1391   23.7011    3.2055 H   0  0  0  0  0  0  0  0  0  0  0  0
   13.5847   25.1549    5.8213 H   0  0  0  0  0  0  0  0  0  0  0  0
   11.2300   25.4772    5.0085 H   0  0  0  0  0  0  0  0  0  0  0  0
    9.9145   23.3822    7.6581 H   0  0  0  0  0  0  0  0  0  0  0  0
    9.3981   23.7243    6.0356 H   0  0  0  0  0  0  0  0  0  0  0  0
    7.6821   25.1509    6.5983 H   0  0  0  0  0  0  0  0  0  0  0  0
    6.8116   27.1801    7.6433 H   0  0  0  0  0  0  0  0  0  0  0  0
   10.7191   28.0347    9.2403 H   0  0  0  0  0  0  0  0  0  0  0  0
   11.6010   25.9763    8.2048 H   0  0  0  0  0  0  0  0  0  0  0  0
   15.5821   19.6283    1.1909 H   0  0  0  0  0  0  0  0  0  0  0  0
   17.2242   17.8829    0.5646 H   0  0  0  0  0  0  0  0  0  0  0  0
   18.5804   16.7640    2.3200 H   0  0  0  0  0  0  0  0  0  0  0  0
   18.2737   17.3940    4.6983 H   0  0  0  0  0  0  0  0  0  0  0  0
   16.6464   19.1067    5.3360 H   0  0  0  0  0  0  0  0  0  0  0  0
   13.8745   23.3396    8.1053 H   0  0  0  0  0  0  0  0  0  0  0  0
   15.1031   23.6516    6.9378 H   0  0  0  0  0  0  0  0  0  0  0  0
   13.8495   20.8838    9.2235 H   0  0  0  0  0  0  0  0  0  0  0  0
   15.3721   19.4523   10.5216 H   0  0  0  0  0  0  0  0  0  0  0  0
   18.7465   21.2048    8.4923 H   0  0  0  0  0  0  0  0  0  0  0  0
   17.2320   22.6491    7.2064 H   0  0  0  0  0  0  0  0  0  0  0  0
   15.6506   25.0502    3.9538 H   0  0  0  0  0  0  0  0  0  0  0  0
   14.1216   26.5359    4.4053 H   0  0  0  0  0  0  0  0  0  0  0  0
   11.5267   22.8404    3.5252 H   0  0  0  0  0  0  0  0  0  0  0  0
   11.4073   24.3946    2.7808 H   0  0  0  0  0  0  0  0  0  0  0  0
   10.1311   25.8252    2.0290 H   0  0  0  0  0  0  0  0  0  0  0  0
    8.3037   27.1056    1.0216 H   0  0  0  0  0  0  0  0  0  0  0  0
    5.9405   26.5862    1.5423 H   0  0  0  0  0  0  0  0  0  0  0  0
    5.4062   24.7237    3.0947 H   0  0  0  0  0  0  0  0  0  0  0  0
    7.2287   23.3956    4.0997 H   0  0  0  0  0  0  0  0  0  0  0  0
   15.5829   20.8740    5.5175 H   0  0  0  0  0  0  0  0  0  0  0  0
   16.2211   22.0150    4.3112 H   0  0  0  0  0  0  0  0  0  0  0  0
   17.9996   17.6915   13.1265 H   0  0  0  0  0  0  0  0  0  0  0  0
   19.3910   18.6140   12.5292 H   0  0  0  0  0  0  0  0  0  0  0  0
   18.8208   17.1516   11.6488 H   0  0  0  0  0  0  0  0  0  0  0  0
    8.8865   29.5272    9.7441 H   0  0  0  0  0  0  0  0  0  0  0  0
    7.3243   28.6889    9.8687 H   0  0  0  0  0  0  0  0  0  0  0  0
    7.2271   30.6059    8.6325 H   0  0  0  0  0  0  0  0  0  0  0  0
  1  8  1  0  0  0  0
  1  7  1  0  0  0  0
  1  2  1  0  0  0  0
  2 40  2  0  0  0  0
  2 15  2  0  0  0  0
  2  3  1  0  0  0  0
  3 23  1  0  0  0  0
  3  4  1  0  0  0  0
  4 41  1  0  0  0  0
  4  5  1  0  0  0  0
  4 48  1  6  0  0  0
  5 30  1  0  0  0  0
  5  6  1  0  0  0  0
  5 49  1  6  0  0  0
  6 31  1  0  0  0  0
  6  7  1  0  0  0  0
  6 50  1  1  0  0  0
  7 32  1  0  0  0  0
  7 51  1  1  0  0  0
  8  9  1  0  0  0  0
  8 52  1  0  0  0  0
  8 53  1  0  0  0  0
  9 14  2  0  0  0  0
  9 10  1  0  0  0  0
 10 11  2  0  0  0  0
 10 54  1  0  0  0  0
 11 12  1  0  0  0  0
 11 55  1  0  0  0  0
 12 46  1  0  0  0  0
 12 13  2  0  0  0  0
 13 14  1  0  0  0  0
 13 56  1  0  0  0  0
 14 57  1  0  0  0  0
 16 41  1  0  0  0  0
 16 17  1  0  0  0  0
 17 22  2  0  0  0  0
 17 18  1  0  0  0  0
 18 19  2  0  0  0  0
 18 58  1  0  0  0  0
 19 20  1  0  0  0  0
 19 59  1  0  0  0  0
 20 21  2  0  0  0  0
 20 60  1  0  0  0  0
 21 22  1  0  0  0  0
 21 61  1  0  0  0  0
 22 62  1  0  0  0  0
 23 24  1  0  0  0  0
 23 63  1  0  0  0  0
 23 64  1  0  0  0  0
 24 29  2  0  0  0  0
 24 25  1  0  0  0  0
 25 26  2  0  0  0  0
 25 65  1  0  0  0  0
 26 27  1  0  0  0  0
 26 66  1  0  0  0  0
 27 42  1  0  0  0  0
 27 28  2  0  0  0  0
 28 29  1  0  0  0  0
 28 67  1  0  0  0  0
 29 68  1  0  0  0  0
 30 69  1  0  0  0  0
 31 70  1  0  0  0  0
 32 33  1  0  0  0  0
 32 71  1  0  0  0  0
 32 72  1  0  0  0  0
 33 34  1  0  0  0  0
 34 39  2  0  0  0  0
 34 35  1  0  0  0  0
 35 36  2  0  0  0  0
 35 73  1  0  0  0  0
 36 37  1  0  0  0  0
 36 74  1  0  0  0  0
 37 38  2  0  0  0  0
 37 75  1  0  0  0  0
 38 39  1  0  0  0  0
 38 76  1  0  0  0  0
 39 77  1  0  0  0  0
 41 78  1  0  0  0  0
 41 79  1  0  0  0  0
 42 44  2  0  0  0  0
 42 43  1  0  0  0  0
 43 45  1  0  0  0  0
 45 80  1  0  0  0  0
 45 81  1  0  0  0  0
 45 82  1  0  0  0  0
 46 47  1  0  0  0  0
 46 83  1  0  0  0  0
 46 84  1  0  0  0  0
 47 85  1  0  0  0  0
M  END
$$$$
