AL1
 OpenBabel04041914033D

 37 39  0  0  0  0  0  0  0  0999 V2000
   -5.1708    1.9775   15.9431 C   0  0  0  0  0  0  0  0  0  0  0  0
   -2.6279    4.7771   12.9643 C   0  0  0  0  0  0  0  0  0  0  0  0
   -2.3946    3.7328   14.0706 C   0  0  0  0  0  0  0  0  0  0  0  0
   -2.5042    9.1710   12.3849 C   0  0  0  0  0  0  0  0  0  0  0  0
   -1.9023    9.6480   13.5524 C   0  0  0  0  0  0  0  0  0  0  0  0
   -1.8721    8.8768   14.7130 C   0  0  0  0  0  0  0  0  0  0  0  0
   -2.4444    7.6143   14.7224 C   0  0  0  0  0  0  0  0  0  0  0  0
   -0.6858   10.5411   15.8770 C   0  0  0  0  0  0  0  0  0  0  0  0
   -5.4471   -0.7131   16.3761 N   0  0  0  0  0  0  0  0  0  0  0  0
   -5.9379    0.7623   16.9628 S   0  0  0  0  0  0  0  0  0  0  0  0
   -5.3095    0.9138   18.2543 O   0  0  0  0  0  0  0  0  0  0  0  0
   -7.3634    0.8499   16.7643 O   0  0  0  0  0  0  0  0  0  0  0  0
   -6.1282    3.3289   15.5205 S   0  0  0  0  0  0  0  0  0  0  0  0
   -4.8552    3.9978   14.6555 C   0  0  0  0  0  0  0  0  0  0  0  0
   -3.6797    3.2629   14.7085 C   0  0  0  0  0  0  0  0  0  0  0  0
   -3.8819    2.0659   15.4412 C   0  0  0  0  0  0  0  0  0  0  0  0
   -3.4906    5.8456   13.4836 N   0  0  0  0  0  0  0  0  0  0  0  0
   -5.1050    5.5112   13.7754 S   0  0  0  0  0  0  0  0  0  0  0  0
   -5.7278    5.1163   12.5246 O   0  0  0  0  0  0  0  0  0  0  0  0
   -5.6827    6.4591   14.6937 O   0  0  0  0  0  0  0  0  0  0  0  0
   -3.0265    7.1581   13.5479 C   0  0  0  0  0  0  0  0  0  0  0  0
   -3.0712    7.9170   12.3759 C   0  0  0  0  0  0  0  0  0  0  0  0
   -1.2926    9.2564   15.9029 O   0  0  0  0  0  0  0  0  0  0  0  0
   -3.1067    4.3215   12.0902 H   0  0  0  0  0  0  0  0  0  0  0  0
   -1.6661    5.1809   12.6262 H   0  0  0  0  0  0  0  0  0  0  0  0
   -1.8443    2.8831   13.6524 H   0  0  0  0  0  0  0  0  0  0  0  0
   -1.7663    4.1774   14.8548 H   0  0  0  0  0  0  0  0  0  0  0  0
   -2.5157    9.7787   11.4834 H   0  0  0  0  0  0  0  0  0  0  0  0
   -1.4581   10.6389   13.5042 H   0  0  0  0  0  0  0  0  0  0  0  0
   -2.4280    6.9929   15.6170 H   0  0  0  0  0  0  0  0  0  0  0  0
   -0.2619   10.7448   16.8637 H   0  0  0  0  0  0  0  0  0  0  0  0
   -1.4312   11.3161   15.6635 H   0  0  0  0  0  0  0  0  0  0  0  0
    0.1312   10.5654   15.1470 H   0  0  0  0  0  0  0  0  0  0  0  0
   -5.8610   -1.5225   16.8249 H   0  0  0  0  0  0  0  0  0  0  0  0
   -4.9336   -0.7849   15.5055 H   0  0  0  0  0  0  0  0  0  0  0  0
   -3.1255    1.3120   15.6213 H   0  0  0  0  0  0  0  0  0  0  0  0
   -3.5262    7.5117   11.4826 H   0  0  0  0  0  0  0  0  0  0  0  0
  1 16  2  0  0  0  0
  1 13  1  0  0  0  0
  1 10  1  0  0  0  0
  2  3  1  0  0  0  0
  2 17  1  0  0  0  0
  2 24  1  0  0  0  0
  2 25  1  0  0  0  0
  3 15  1  0  0  0  0
  3 26  1  0  0  0  0
  3 27  1  0  0  0  0
  4 22  2  0  0  0  0
  4  5  1  0  0  0  0
  4 28  1  0  0  0  0
  5  6  2  0  0  0  0
  5 29  1  0  0  0  0
  6 23  1  0  0  0  0
  6  7  1  0  0  0  0
  7 21  2  0  0  0  0
  7 30  1  0  0  0  0
  8 23  1  0  0  0  0
  8 31  1  0  0  0  0
  8 32  1  0  0  0  0
  8 33  1  0  0  0  0
  9 10  1  0  0  0  0
  9 34  1  0  0  0  0
  9 35  1  0  0  0  0
 10 12  2  0  0  0  0
 10 11  2  0  0  0  0
 13 14  1  0  0  0  0
 14 18  1  0  0  0  0
 14 15  2  0  0  0  0
 15 16  1  0  0  0  0
 16 36  1  0  0  0  0
 17 18  1  0  0  0  0
 17 21  1  0  0  0  0
 18 20  2  0  0  0  0
 18 19  2  0  0  0  0
 21 22  1  0  0  0  0
 22 37  1  0  0  0  0
M  END
$$$$
