AL2
 OpenBabel04041914033D

 38 40  0  0  1  0  0  0  0  0999 V2000
   -5.2587    2.0804   15.9962 C   0  0  0  0  0  0  0  0  0  0  0  0
   -2.3644    2.7634   12.7634 O   0  0  0  0  0  0  0  0  0  0  0  0
   -3.0889    5.0368   12.8479 C   0  0  0  0  0  0  0  0  0  0  0  0
   -2.7420    3.7823   13.6782 C   0  0  1  0  0  0  0  0  0  0  0  0
   -2.9712    7.3383   13.8061 C   0  0  0  0  0  0  0  0  0  0  0  0
   -2.9459    8.0704   12.6291 C   0  0  0  0  0  0  0  0  0  0  0  0
   -2.4083    9.3442   12.6468 C   0  0  0  0  0  0  0  0  0  0  0  0
   -1.8934    9.8602   13.8394 C   0  0  0  0  0  0  0  0  0  0  0  0
   -1.9341    9.1223   15.0245 C   0  0  0  0  0  0  0  0  0  0  0  0
   -2.4846    7.8488   15.0091 C   0  0  0  0  0  0  0  0  0  0  0  0
   -5.3564    0.8716   18.2687 O   0  0  0  0  0  0  0  0  0  0  0  0
   -7.4189    0.8689   16.7909 O   0  0  0  0  0  0  0  0  0  0  0  0
   -5.4669   -0.6183   16.2887 N   0  0  0  0  0  0  0  0  0  0  0  0
   -5.9920    0.7947   16.9788 S   0  0  0  0  0  0  0  0  0  0  0  0
   -4.0698    2.1204   15.2847 C   0  0  0  0  0  0  0  0  0  0  0  0
   -3.9070    3.3418   14.5661 C   0  0  0  0  0  0  0  0  0  0  0  0
   -4.9814    4.1816   14.8260 C   0  0  0  0  0  0  0  0  0  0  0  0
   -6.1648    3.5200   15.8252 S   0  0  0  0  0  0  0  0  0  0  0  0
   -5.1509    5.8622   14.2674 S   0  0  0  0  0  0  0  0  0  0  0  0
   -5.9627    5.7878   13.0662 O   0  0  0  0  0  0  0  0  0  0  0  0
   -5.4523    6.6555   15.4187 O   0  0  0  0  0  0  0  0  0  0  0  0
   -3.5388    6.0589   13.8056 N   0  0  0  0  0  0  0  0  0  0  0  0
   -1.4554   11.1555   13.8701 O   0  0  0  0  0  0  0  0  0  0  0  0
   -0.0900   11.2438   13.4705 C   0  0  0  0  0  0  0  0  0  0  0  0
   -2.1029    1.9963   13.2988 H   0  0  0  0  0  0  0  0  0  0  0  0
   -3.8859    4.8131   12.1286 H   0  0  0  0  0  0  0  0  0  0  0  0
   -2.2417    5.3700   12.2339 H   0  0  0  0  0  0  0  0  0  0  0  0
   -1.8845    4.0354   14.3197 H   0  0  0  0  0  0  0  0  0  0  0  0
   -3.3498    7.6492   11.7115 H   0  0  0  0  0  0  0  0  0  0  0  0
   -2.4047    9.9356   11.7400 H   0  0  0  0  0  0  0  0  0  0  0  0
   -1.5549    9.5345   15.9540 H   0  0  0  0  0  0  0  0  0  0  0  0
   -2.5397    7.2601   15.9236 H   0  0  0  0  0  0  0  0  0  0  0  0
   -5.8144   -1.4732   16.7120 H   0  0  0  0  0  0  0  0  0  0  0  0
   -4.9897   -0.6215   15.3937 H   0  0  0  0  0  0  0  0  0  0  0  0
   -3.3713    1.2946   15.2781 H   0  0  0  0  0  0  0  0  0  0  0  0
    0.1865   12.3029   13.4741 H   0  0  0  0  0  0  0  0  0  0  0  0
    0.0709   10.8598   12.4567 H   0  0  0  0  0  0  0  0  0  0  0  0
    0.5557   10.7231   14.1850 H   0  0  0  0  0  0  0  0  0  0  0  0
  1 18  1  0  0  0  0
  1 15  2  0  0  0  0
  1 14  1  0  0  0  0
  2  4  1  0  0  0  0
  2 25  1  0  0  0  0
  3  4  1  0  0  0  0
  3 22  1  0  0  0  0
  3 26  1  0  0  0  0
  3 27  1  0  0  0  0
  4 16  1  0  0  0  0
  4 28  1  1  0  0  0
  5 22  1  0  0  0  0
  5 10  2  0  0  0  0
  5  6  1  0  0  0  0
  6  7  2  0  0  0  0
  6 29  1  0  0  0  0
  7  8  1  0  0  0  0
  7 30  1  0  0  0  0
  8 23  1  0  0  0  0
  8  9  2  0  0  0  0
  9 10  1  0  0  0  0
  9 31  1  0  0  0  0
 10 32  1  0  0  0  0
 11 14  2  0  0  0  0
 12 14  2  0  0  0  0
 13 14  1  0  0  0  0
 13 33  1  0  0  0  0
 13 34  1  0  0  0  0
 15 16  1  0  0  0  0
 15 35  1  0  0  0  0
 16 17  2  0  0  0  0
 17 19  1  0  0  0  0
 17 18  1  0  0  0  0
 19 22  1  0  0  0  0
 19 21  2  0  0  0  0
 19 20  2  0  0  0  0
 23 24  1  0  0  0  0
 24 36  1  0  0  0  0
 24 37  1  0  0  0  0
 24 38  1  0  0  0  0
M  END
$$$$
