AL7
 OpenBabel04041914043D

 43 45  0  0  1  0  0  0  0  0999 V2000
   -5.4411    1.8613   15.8707 C   0  0  0  0  0  0  0  0  0  0  0  0
   -4.1320    4.6406   12.2280 C   0  0  0  0  0  0  0  0  0  0  0  0
   -3.5753    3.4406   13.0167 C   0  0  2  0  0  0  0  0  0  0  0  0
   -1.4069    3.0229   12.4187 C   0  0  0  0  0  0  0  0  0  0  0  0
   -2.6060    8.7358   11.8437 C   0  0  0  0  0  0  0  0  0  0  0  0
   -1.8898    9.1897   12.9570 C   0  0  0  0  0  0  0  0  0  0  0  0
   -1.9183    8.4910   14.1599 C   0  0  0  0  0  0  0  0  0  0  0  0
   -2.6430    7.3130   14.2532 C   0  0  0  0  0  0  0  0  0  0  0  0
   -0.6035   10.1374   15.2428 C   0  0  0  0  0  0  0  0  0  0  0  0
   -5.5409   -0.8315   16.4186 N   0  0  0  0  0  0  0  0  0  0  0  0
   -6.0201    0.6511   17.0241 S   0  0  0  0  0  0  0  0  0  0  0  0
   -5.2589    0.8736   18.2065 O   0  0  0  0  0  0  0  0  0  0  0  0
   -7.4574    0.7165   16.9563 O   0  0  0  0  0  0  0  0  0  0  0  0
   -6.1378    3.4078   16.0443 S   0  0  0  0  0  0  0  0  0  0  0  0
   -5.2793    3.9797   14.7347 C   0  0  0  0  0  0  0  0  0  0  0  0
   -4.4092    3.0528   14.1807 C   0  0  0  0  0  0  0  0  0  0  0  0
   -4.5148    1.7990   14.8385 C   0  0  0  0  0  0  0  0  0  0  0  0
   -4.1688    5.7273   13.2068 N   0  0  0  0  0  0  0  0  0  0  0  0
   -5.4913    5.6700   14.2292 S   0  0  0  0  0  0  0  0  0  0  0  0
   -6.6704    5.6790   13.3904 O   0  0  0  0  0  0  0  0  0  0  0  0
   -5.2523    6.4506   15.3980 O   0  0  0  0  0  0  0  0  0  0  0  0
   -2.1682    3.7695   13.4294 N   0  3  0  0  0  0  0  0  0  0  0  0
   -3.3736    6.8794   13.1456 C   0  0  0  0  0  0  0  0  0  0  0  0
   -3.3488    7.5722   11.9479 C   0  0  0  0  0  0  0  0  0  0  0  0
   -1.2746    8.8797   15.2999 O   0  0  0  0  0  0  0  0  0  0  0  0
   -5.1350    4.3789   11.8778 H   0  0  0  0  0  0  0  0  0  0  0  0
   -3.5316    4.8908   11.3477 H   0  0  0  0  0  0  0  0  0  0  0  0
   -3.5533    2.6040   12.3177 H   0  0  0  0  0  0  0  0  0  0  0  0
   -0.3477    3.1453   12.5574 H   0  0  0  0  0  0  0  0  0  0  0  0
   -1.7525    3.4037   11.4473 H   0  0  0  0  0  0  0  0  0  0  0  0
   -1.7140    1.9772   12.5462 H   0  0  0  0  0  0  0  0  0  0  0  0
   -2.6014    9.2839   10.9252 H   0  0  0  0  0  0  0  0  0  0  0  0
   -1.3341   10.1133   12.8480 H   0  0  0  0  0  0  0  0  0  0  0  0
   -2.6511    6.7655   15.2020 H   0  0  0  0  0  0  0  0  0  0  0  0
   -0.1658   10.3175   16.2271 H   0  0  0  0  0  0  0  0  0  0  0  0
   -1.2968   10.9575   15.0207 H   0  0  0  0  0  0  0  0  0  0  0  0
    0.2089   10.1112   14.5085 H   0  0  0  0  0  0  0  0  0  0  0  0
   -5.8522   -1.6062   16.9828 H   0  0  0  0  0  0  0  0  0  0  0  0
   -5.1532   -0.9120   15.5114 H   0  0  0  0  0  0  0  0  0  0  0  0
   -3.9899    0.8848   14.5836 H   0  0  0  0  0  0  0  0  0  0  0  0
   -1.9846    4.7922   13.4056 H   0  0  0  0  0  0  0  0  0  0  0  0
   -3.9342    7.2238   11.1032 H   0  0  0  0  0  0  0  0  0  0  0  0
   -1.9580    3.5078   14.4098 H   0  0  0  0  0  0  0  0  0  0  0  0
  1 17  2  0  0  0  0
  1 14  1  0  0  0  0
  1 11  1  0  0  0  0
  2  3  1  0  0  0  0
  2 18  1  0  0  0  0
  2 26  1  0  0  0  0
  2 27  1  0  0  0  0
  3 16  1  0  0  0  0
  3 22  1  0  0  0  0
  3 28  1  6  0  0  0
  4 22  1  0  0  0  0
  4 29  1  0  0  0  0
  4 30  1  0  0  0  0
  4 31  1  0  0  0  0
  5 24  2  0  0  0  0
  5  6  1  0  0  0  0
  5 32  1  0  0  0  0
  6  7  2  0  0  0  0
  6 33  1  0  0  0  0
  7 25  1  0  0  0  0
  7  8  1  0  0  0  0
  8 23  2  0  0  0  0
  8 34  1  0  0  0  0
  9 25  1  0  0  0  0
  9 35  1  0  0  0  0
  9 36  1  0  0  0  0
  9 37  1  0  0  0  0
 10 11  1  0  0  0  0
 10 38  1  0  0  0  0
 10 39  1  0  0  0  0
 11 13  2  0  0  0  0
 11 12  2  0  0  0  0
 14 15  1  0  0  0  0
 15 19  1  0  0  0  0
 15 16  2  0  0  0  0
 16 17  1  0  0  0  0
 17 40  1  0  0  0  0
 18 19  1  0  0  0  0
 18 23  1  0  0  0  0
 19 21  2  0  0  0  0
 19 20  2  0  0  0  0
 22 41  1  0  0  0  0
 22 43  1  0  0  0  0
 23 24  1  0  0  0  0
 24 42  1  0  0  0  0
M  CHG  1  22   1
M  END
$$$$
