AMP
 OpenBabel04041917053D

 35 37  0  0  1  0  0  0  0  0999 V2000
   19.2742   18.7945    8.2166 P   0  0  0  0  0  0  0  0  0  0  0  0
   20.5712   19.0243    8.9685 O   0  0  0  0  0  0  0  0  0  0  0  0
   19.1988   19.4447    6.8463 O   0  0  0  0  0  0  0  0  0  0  0  0
   18.0151   18.9298    9.0566 O   0  0  0  0  0  0  0  0  0  0  0  0
   19.3750   17.1919    7.8835 O   0  0  0  0  0  0  0  0  0  0  0  0
   18.3023   16.5257    7.2620 C   0  0  0  0  0  0  0  0  0  0  0  0
   18.2774   15.0798    7.8056 C   0  0  1  0  0  0  0  0  0  0  0  0
   17.2030   14.3258    7.1913 O   0  0  0  0  0  0  0  0  0  0  0  0
   19.5720   14.2747    7.5671 C   0  0  1  0  0  0  0  0  0  0  0  0
   20.5712   14.4256    8.5797 O   0  0  0  0  0  0  0  0  0  0  0  0
   19.0749   12.8227    7.4670 C   0  0  1  0  0  0  0  0  0  0  0  0
   19.1230   12.1144    8.7213 O   0  0  0  0  0  0  0  0  0  0  0  0
   17.6099   12.9587    7.0185 C   0  0  2  0  0  0  0  0  0  0  0  0
   17.3568   12.5495    5.6417 N   0  3  0  0  0  0  0  0  0  0  0  0
   17.7072   13.1786    4.4875 C   0  0  0  0  0  0  0  0  0  0  0  0
   17.3164   12.5413    3.4075 N   0  0  0  0  0  0  0  0  0  0  0  0
   16.6264   11.4471    3.8817 C   0  0  0  0  0  0  0  0  0  0  0  0
   15.9571   10.3909    3.2270 C   0  0  0  0  0  0  0  0  0  0  0  0
   15.9144   10.2892    1.8500 N   0  0  0  0  0  0  0  0  0  0  0  0
   15.3614    9.4392    3.9832 N   0  0  0  0  0  0  0  0  0  0  0  0
   15.4399    9.5611    5.3317 C   0  0  0  0  0  0  0  0  0  0  0  0
   16.0583   10.5033    6.0587 N   0  0  0  0  0  0  0  0  0  0  0  0
   16.6259   11.4235    5.2696 C   0  0  0  0  0  0  0  0  0  0  0  0
   18.4527   16.5265    6.1790 H   0  0  0  0  0  0  0  0  0  0  0  0
   17.3357   17.0201    7.4405 H   0  0  0  0  0  0  0  0  0  0  0  0
   18.1102   15.1524    8.8877 H   0  0  0  0  0  0  0  0  0  0  0  0
   20.0414   14.5482    6.6151 H   0  0  0  0  0  0  0  0  0  0  0  0
   20.7147   15.4030    8.6661 H   0  0  0  0  0  0  0  0  0  0  0  0
   19.6722   12.2194    6.7741 H   0  0  0  0  0  0  0  0  0  0  0  0
   20.0303   12.2354    9.0614 H   0  0  0  0  0  0  0  0  0  0  0  0
   16.9751   12.3308    7.6516 H   0  0  0  0  0  0  0  0  0  0  0  0
   18.2619   14.1223    4.4825 H   0  0  0  0  0  0  0  0  0  0  0  0
   15.4148    9.5360    1.4161 H   0  0  0  0  0  0  0  0  0  0  0  0
   16.3471   11.0303    1.3153 H   0  0  0  0  0  0  0  0  0  0  0  0
   14.9469    8.7795    5.9099 H   0  0  0  0  0  0  0  0  0  0  0  0
  1  2  2  0  0  0  0
  1  3  1  0  0  0  0
  1  4  1  0  0  0  0
  1  5  1  0  0  0  0
  5  6  1  0  0  0  0
  6  7  1  0  0  0  0
  6 24  1  0  0  0  0
  6 25  1  0  0  0  0
  7  8  1  0  0  0  0
  7  9  1  0  0  0  0
  7 26  1  1  0  0  0
  8 13  1  0  0  0  0
  9 10  1  0  0  0  0
  9 11  1  0  0  0  0
  9 27  1  6  0  0  0
 10 28  1  0  0  0  0
 11 12  1  0  0  0  0
 11 13  1  0  0  0  0
 11 29  1  6  0  0  0
 12 30  1  0  0  0  0
 13 14  1  0  0  0  0
 13 31  1  1  0  0  0
 14 15  2  0  0  0  0
 14 23  1  0  0  0  0
 15 16  1  0  0  0  0
 15 32  1  0  0  0  0
 16 17  1  0  0  0  0
 17 18  2  0  0  0  0
 17 23  1  0  0  0  0
 18 19  1  0  0  0  0
 18 20  1  0  0  0  0
 19 33  1  0  0  0  0
 19 34  1  0  0  0  0
 20 21  2  0  0  0  0
 21 22  1  0  0  0  0
 21 35  1  0  0  0  0
 22 23  2  0  0  0  0
M  CHG  1  14   1
M  END
$$$$
