AMQ
 OpenBabel04041914423D

 23 23  0  0  1  0  0  0  0  0999 V2000
   75.0703   27.4853   42.8830 N   0  3  0  0  0  0  0  0  0  0  0  0
   76.1572   26.4200   42.9694 C   0  0  2  0  0  0  0  0  0  0  0  0
   76.4623   26.0369   44.4543 C   0  0  0  0  0  0  0  0  0  0  0  0
   77.4047   25.2389   44.6509 O   0  0  0  0  0  0  0  0  0  0  0  0
   75.6682   26.6290   45.2505 O   0  0  0  0  0  0  0  0  0  0  0  0
   77.3969   26.9416   42.2358 C   0  0  0  0  0  0  0  0  0  0  0  0
   77.1872   27.1514   40.7619 C   0  0  0  0  0  0  0  0  0  0  0  0
   77.4457   26.0789   39.7899 C   0  0  0  0  0  0  0  0  0  0  0  0
   76.8099   28.1780   39.9957 C   0  0  0  0  0  0  0  0  0  0  0  0
   76.3969   29.5577   40.3961 C   0  0  0  0  0  0  0  0  0  0  0  0
   77.8051   24.9585   40.0518 O   0  0  0  0  0  0  0  0  0  0  0  0
   77.1741   26.5801   38.5486 N   0  3  0  0  0  0  0  0  0  0  0  0
   76.7630   27.9251   38.6233 O   0  0  0  0  0  0  0  0  0  0  0  0
   74.8244   27.7359   41.9288 H   0  0  0  0  0  0  0  0  0  0  0  0
   74.2603   27.1290   43.4098 H   0  0  0  0  0  0  0  0  0  0  0  0
   75.7413   25.5401   42.4685 H   0  0  0  0  0  0  0  0  0  0  0  0
   78.2212   26.2331   42.3858 H   0  0  0  0  0  0  0  0  0  0  0  0
   77.7276   27.8807   42.6957 H   0  0  0  0  0  0  0  0  0  0  0  0
   76.1283   30.1462   39.5107 H   0  0  0  0  0  0  0  0  0  0  0  0
   77.1978   30.0872   40.9195 H   0  0  0  0  0  0  0  0  0  0  0  0
   75.5118   29.5358   41.0366 H   0  0  0  0  0  0  0  0  0  0  0  0
   77.2345   26.0904   37.6679 H   0  0  0  0  0  0  0  0  0  0  0  0
   75.3825   28.2852   43.4498 H   0  0  0  0  0  0  0  0  0  0  0  0
  1  2  1  0  0  0  0
  1 14  1  0  0  0  0
  1 15  1  0  0  0  0
  1 23  1  0  0  0  0
  2  3  1  0  0  0  0
  2  6  1  0  0  0  0
  2 16  1  6  0  0  0
  3  4  2  0  0  0  0
  3  5  1  0  0  0  0
  6  7  1  0  0  0  0
  6 17  1  0  0  0  0
  6 18  1  0  0  0  0
  7  8  1  0  0  0  0
  7  9  2  0  0  0  0
  8 11  2  0  0  0  0
  8 12  1  0  0  0  0
  9 10  1  0  0  0  0
  9 13  1  0  0  0  0
 10 19  1  0  0  0  0
 10 20  1  0  0  0  0
 10 21  1  0  0  0  0
 12 13  1  0  0  0  0
 12 22  1  0  0  0  0
M  CHG  2   1   1  12   1
M  END
$$$$
