AMR
 OpenBabel04041914333D

 24 24  0  0  0  0  0  0  0  0999 V2000
   31.2060    7.6444   27.6816 N   0  0  0  0  0  0  0  0  0  0  0  0
   30.5116    6.7460   28.4439 C   0  0  0  0  0  0  0  0  0  0  0  0
   31.1625    5.4159   28.6207 C   0  0  0  0  0  0  0  0  0  0  0  0
   32.4965    5.3080   28.1189 N   0  0  0  0  0  0  0  0  0  0  0  0
   33.2472    4.2021   28.0776 C   0  0  0  0  0  0  0  0  0  0  0  0
   32.7643    3.0122   28.4663 N   0  0  0  0  0  0  0  0  0  0  0  0
   34.4939    4.2479   27.6119 N   0  0  0  0  0  0  0  0  0  0  0  0
   30.6137    4.4282   29.0942 O   0  0  0  0  0  0  0  0  0  0  0  0
   29.2544    7.0093   29.0096 C   0  0  0  0  0  0  0  0  0  0  0  0
   28.6317    6.1576   29.9124 N   0  0  0  0  0  0  0  0  0  0  0  0
   28.6513    8.2112   28.8201 N   0  0  0  0  0  0  0  0  0  0  0  0
   29.3026    9.1433   28.0705 C   0  0  0  0  0  0  0  0  0  0  0  0
   28.7280   10.3983   27.9918 N   0  0  0  0  0  0  0  0  0  0  0  0
   30.5714    8.8333   27.5213 C   0  0  0  0  0  0  0  0  0  0  0  0
   31.4248    9.9493   26.5418 Cl  0  0  0  0  0  0  0  0  0  0  0  0
   32.8829    6.1846   27.7634 H   0  0  0  0  0  0  0  0  0  0  0  0
   33.3046    2.1633   28.4289 H   0  0  0  0  0  0  0  0  0  0  0  0
   31.8155    2.9654   28.8356 H   0  0  0  0  0  0  0  0  0  0  0  0
   35.0702    3.4193   27.5660 H   0  0  0  0  0  0  0  0  0  0  0  0
   27.6897    6.4133   30.1663 H   0  0  0  0  0  0  0  0  0  0  0  0
   28.8521    5.1701   29.9099 H   0  0  0  0  0  0  0  0  0  0  0  0
   29.0567   11.0659   27.3172 H   0  0  0  0  0  0  0  0  0  0  0  0
   27.7936   10.4965   28.3605 H   0  0  0  0  0  0  0  0  0  0  0  0
   34.9191    5.1188   27.3063 H   0  0  0  0  0  0  0  0  0  0  0  0
  1 14  2  0  0  0  0
  1  2  1  0  0  0  0
  2  9  2  0  0  0  0
  2  3  1  0  0  0  0
  3  8  2  0  0  0  0
  3  4  1  0  0  0  0
  4  5  1  0  0  0  0
  4 16  1  0  0  0  0
  5  7  2  0  0  0  0
  5  6  1  0  0  0  0
  6 17  1  0  0  0  0
  6 18  1  0  0  0  0
  7 19  1  0  0  0  0
  7 24  1  0  0  0  0
  9 11  1  0  0  0  0
  9 10  1  0  0  0  0
 10 20  1  0  0  0  0
 10 21  1  0  0  0  0
 11 12  2  0  0  0  0
 12 14  1  0  0  0  0
 12 13  1  0  0  0  0
 13 22  1  0  0  0  0
 13 23  1  0  0  0  0
 14 15  1  0  0  0  0
M  END
$$$$
