ANH
 OpenBabel04041917193D

 55 56  0  0  1  0  0  0  0  0999 V2000
   -2.2752   18.0226   16.9589 N   0  0  0  0  0  0  0  0  0  0  0  0
   -3.5031   17.3439   17.3914 C   0  0  1  0  0  0  0  0  0  0  0  0
   -3.2082   16.3408   18.5334 C   0  0  0  0  0  0  0  0  0  0  0  0
   -4.6408   18.3035   17.8227 C   0  0  0  0  0  0  0  0  0  0  0  0
   -5.7991   18.0693   17.4660 O   0  0  0  0  0  0  0  0  0  0  0  0
   -4.4099   19.3184   18.6874 O   0  0  0  0  0  0  0  0  0  0  0  0
   -3.1567   19.6617   19.2955 C   0  0  0  0  0  0  0  0  0  0  0  0
   -2.4028   15.0913   18.1774 C   0  0  0  0  0  0  0  0  0  0  0  0
   -1.4071   14.6524   19.0641 C   0  0  0  0  0  0  0  0  0  0  0  0
   -0.6734   13.4891   18.7995 C   0  0  0  0  0  0  0  0  0  0  0  0
   -0.9404   12.7395   17.6580 C   0  0  0  0  0  0  0  0  0  0  0  0
   -1.9454   13.1197   16.7490 C   0  0  0  0  0  0  0  0  0  0  0  0
   -2.6688   14.3079   17.0345 C   0  0  0  0  0  0  0  0  0  0  0  0
   -2.2209   12.3020   15.5335 C   0  0  0  0  0  0  0  0  0  0  0  0
   -2.6990   12.8423   14.4328 N   0  0  0  0  0  0  0  0  0  0  0  0
   -1.9846   11.0057   15.5078 N   0  0  0  0  0  0  0  0  0  0  0  0
   -2.2295   18.7845   15.7994 C   0  0  0  0  0  0  0  0  0  0  0  0
   -0.9226   19.5579   15.6140 C   0  0  0  0  0  0  0  0  0  0  0  0
   -0.5878   19.8931   14.2370 N   0  0  0  0  0  0  0  0  0  0  0  0
   -3.1817   18.8446   15.0301 O   0  0  0  0  0  0  0  0  0  0  0  0
    3.8986   24.4264   16.2387 C   0  0  0  0  0  0  0  0  0  0  0  0
    2.7875   23.6512   15.5852 C   0  0  0  0  0  0  0  0  0  0  0  0
    2.9723   22.9390   14.3877 C   0  0  0  0  0  0  0  0  0  0  0  0
    1.9061   22.2434   13.7760 C   0  0  0  0  0  0  0  0  0  0  0  0
    0.6431   22.2798   14.3947 C   0  0  0  0  0  0  0  0  0  0  0  0
    0.4609   23.0173   15.5721 C   0  0  0  0  0  0  0  0  0  0  0  0
    1.5223   23.6904   16.1673 C   0  0  0  0  0  0  0  0  0  0  0  0
   -0.7749   21.4651   13.6814 S   0  0  0  0  0  0  0  0  0  0  0  0
   -0.6036   21.4232   12.2522 O   0  0  0  0  0  0  0  0  0  0  0  0
   -1.9616   22.0132   14.3026 O   0  0  0  0  0  0  0  0  0  0  0  0
   -1.4157   17.8161   17.4506 H   0  0  0  0  0  0  0  0  0  0  0  0
   -3.9009   16.7963   16.5263 H   0  0  0  0  0  0  0  0  0  0  0  0
   -4.1376   16.0232   19.0241 H   0  0  0  0  0  0  0  0  0  0  0  0
   -2.6346   16.8786   19.2988 H   0  0  0  0  0  0  0  0  0  0  0  0
   -3.3129   20.5416   19.9301 H   0  0  0  0  0  0  0  0  0  0  0  0
   -2.4184   19.9318   18.5426 H   0  0  0  0  0  0  0  0  0  0  0  0
   -2.8083   18.8579   19.9441 H   0  0  0  0  0  0  0  0  0  0  0  0
   -1.2026   15.2078   19.9782 H   0  0  0  0  0  0  0  0  0  0  0  0
    0.0981   13.1797   19.5023 H   0  0  0  0  0  0  0  0  0  0  0  0
   -0.3294   11.8552   17.4915 H   0  0  0  0  0  0  0  0  0  0  0  0
   -3.4722   14.6137   16.3700 H   0  0  0  0  0  0  0  0  0  0  0  0
   -2.8773   12.2883   13.6056 H   0  0  0  0  0  0  0  0  0  0  0  0
   -1.6387   10.5055   16.3144 H   0  0  0  0  0  0  0  0  0  0  0  0
   -2.1698   10.4562   14.6769 H   0  0  0  0  0  0  0  0  0  0  0  0
   -0.0978   18.9550   16.0073 H   0  0  0  0  0  0  0  0  0  0  0  0
   -0.9886   20.4565   16.2357 H   0  0  0  0  0  0  0  0  0  0  0  0
   -0.4990   19.1784   13.5187 H   0  0  0  0  0  0  0  0  0  0  0  0
    4.8399   24.3242   15.6830 H   0  0  0  0  0  0  0  0  0  0  0  0
    4.0538   24.0477   17.2511 H   0  0  0  0  0  0  0  0  0  0  0  0
    3.6423   25.4883   16.2903 H   0  0  0  0  0  0  0  0  0  0  0  0
    3.9533   22.9192   13.9156 H   0  0  0  0  0  0  0  0  0  0  0  0
    2.0626   21.7080   12.8468 H   0  0  0  0  0  0  0  0  0  0  0  0
   -0.5293   23.0762   16.0313 H   0  0  0  0  0  0  0  0  0  0  0  0
    1.3507   24.2635   17.0722 H   0  0  0  0  0  0  0  0  0  0  0  0
   -2.8848   13.8367   14.3613 H   0  0  0  0  0  0  0  0  0  0  0  0
  1  2  1  0  0  0  0
  1 17  1  0  0  0  0
  1 31  1  0  0  0  0
  2  3  1  0  0  0  0
  2  4  1  0  0  0  0
  2 32  1  6  0  0  0
  3  8  1  0  0  0  0
  3 33  1  0  0  0  0
  3 34  1  0  0  0  0
  4  5  2  0  0  0  0
  4  6  1  0  0  0  0
  6  7  1  0  0  0  0
  7 35  1  0  0  0  0
  7 36  1  0  0  0  0
  7 37  1  0  0  0  0
  8  9  2  0  0  0  0
  8 13  1  0  0  0  0
  9 10  1  0  0  0  0
  9 38  1  0  0  0  0
 10 11  2  0  0  0  0
 10 39  1  0  0  0  0
 11 12  1  0  0  0  0
 11 40  1  0  0  0  0
 12 13  2  0  0  0  0
 12 14  1  0  0  0  0
 13 41  1  0  0  0  0
 14 15  2  0  0  0  0
 14 16  1  0  0  0  0
 15 42  1  0  0  0  0
 15 55  1  0  0  0  0
 16 43  1  0  0  0  0
 16 44  1  0  0  0  0
 17 18  1  0  0  0  0
 17 20  2  0  0  0  0
 18 19  1  0  0  0  0
 18 45  1  0  0  0  0
 18 46  1  0  0  0  0
 19 28  1  0  0  0  0
 19 47  1  0  0  0  0
 21 22  1  0  0  0  0
 21 48  1  0  0  0  0
 21 49  1  0  0  0  0
 21 50  1  0  0  0  0
 22 23  2  0  0  0  0
 22 27  1  0  0  0  0
 23 24  1  0  0  0  0
 23 51  1  0  0  0  0
 24 25  2  0  0  0  0
 24 52  1  0  0  0  0
 25 26  1  0  0  0  0
 25 28  1  0  0  0  0
 26 27  2  0  0  0  0
 26 53  1  0  0  0  0
 27 54  1  0  0  0  0
 28 29  2  0  0  0  0
 28 30  2  0  0  0  0
M  END
$$$$
