ANH
 OpenBabel04041917203D

 55 56  0  0  1  0  0  0  0  0999 V2000
   -2.1972   19.1372   17.6572 N   0  0  0  0  0  0  0  0  0  0  0  0
   -3.3644   18.4293   18.1956 C   0  0  1  0  0  0  0  0  0  0  0  0
   -2.9258   17.3716   19.2378 C   0  0  0  0  0  0  0  0  0  0  0  0
   -4.4441   19.3353   18.8307 C   0  0  0  0  0  0  0  0  0  0  0  0
   -5.6354   19.0729   18.6556 O   0  0  0  0  0  0  0  0  0  0  0  0
   -4.1043   20.3249   19.6886 O   0  0  0  0  0  0  0  0  0  0  0  0
   -2.7849   20.6421   20.1506 C   0  0  0  0  0  0  0  0  0  0  0  0
   -2.1194   16.1742   18.7305 C   0  0  0  0  0  0  0  0  0  0  0  0
   -1.0910   15.6776   19.5460 C   0  0  0  0  0  0  0  0  0  0  0  0
   -0.3595   14.5630   19.1524 C   0  0  0  0  0  0  0  0  0  0  0  0
   -0.6458   13.9151   17.9528 C   0  0  0  0  0  0  0  0  0  0  0  0
   -1.6832   14.3556   17.1080 C   0  0  0  0  0  0  0  0  0  0  0  0
   -2.4164   15.4994   17.5355 C   0  0  0  0  0  0  0  0  0  0  0  0
   -1.9912   13.6495   15.8387 C   0  0  0  0  0  0  0  0  0  0  0  0
   -2.6789   14.2278   14.8714 N   0  0  0  0  0  0  0  0  0  0  0  0
   -1.5770   12.4192   15.6166 N   0  0  0  0  0  0  0  0  0  0  0  0
   -2.2934   19.9843   16.5599 C   0  0  0  0  0  0  0  0  0  0  0  0
   -0.9982   20.7284   16.2662 C   0  0  0  0  0  0  0  0  0  0  0  0
   -0.8009   21.2663   14.9322 N   0  0  0  0  0  0  0  0  0  0  0  0
   -3.3393   20.1310   15.9417 O   0  0  0  0  0  0  0  0  0  0  0  0
    2.9539   25.4044   18.6090 C   0  0  0  0  0  0  0  0  0  0  0  0
    2.0438   24.7601   17.6020 C   0  0  0  0  0  0  0  0  0  0  0  0
    2.5228   23.9744   16.5419 C   0  0  0  0  0  0  0  0  0  0  0  0
    1.6360   23.4031   15.6121 C   0  0  0  0  0  0  0  0  0  0  0  0
    0.2628   23.6271   15.7505 C   0  0  0  0  0  0  0  0  0  0  0  0
   -0.2172   24.4143   16.8017 C   0  0  0  0  0  0  0  0  0  0  0  0
    0.6656   24.9737   17.7186 C   0  0  0  0  0  0  0  0  0  0  0  0
   -0.9377   22.9082   14.6432 S   0  0  0  0  0  0  0  0  0  0  0  0
   -0.4854   23.1184   13.2855 O   0  0  0  0  0  0  0  0  0  0  0  0
   -2.2522   23.3160   15.0815 O   0  0  0  0  0  0  0  0  0  0  0  0
   -1.2783   18.8369   17.9588 H   0  0  0  0  0  0  0  0  0  0  0  0
   -3.8627   17.9356   17.3509 H   0  0  0  0  0  0  0  0  0  0  0  0
   -3.7888   16.9918   19.7992 H   0  0  0  0  0  0  0  0  0  0  0  0
   -2.2905   17.8804   19.9708 H   0  0  0  0  0  0  0  0  0  0  0  0
   -2.8676   21.4815   20.8480 H   0  0  0  0  0  0  0  0  0  0  0  0
   -2.1481   20.9638   19.3275 H   0  0  0  0  0  0  0  0  0  0  0  0
   -2.3506   19.8090   20.7043 H   0  0  0  0  0  0  0  0  0  0  0  0
   -0.8551   16.1492   20.4974 H   0  0  0  0  0  0  0  0  0  0  0  0
    0.4413   14.1908   19.7969 H   0  0  0  0  0  0  0  0  0  0  0  0
   -0.0277   13.0568   17.6970 H   0  0  0  0  0  0  0  0  0  0  0  0
   -3.2505   15.8512   16.9366 H   0  0  0  0  0  0  0  0  0  0  0  0
   -2.8885   13.7507   14.0067 H   0  0  0  0  0  0  0  0  0  0  0  0
   -1.0619   11.8907   16.3240 H   0  0  0  0  0  0  0  0  0  0  0  0
   -1.7734   11.9317   14.7535 H   0  0  0  0  0  0  0  0  0  0  0  0
   -0.1649   20.0351   16.4310 H   0  0  0  0  0  0  0  0  0  0  0  0
   -0.9047   21.5117   17.0237 H   0  0  0  0  0  0  0  0  0  0  0  0
   -0.9064   20.6839   14.1041 H   0  0  0  0  0  0  0  0  0  0  0  0
    4.0072   25.1774   18.4178 H   0  0  0  0  0  0  0  0  0  0  0  0
    2.7066   25.0481   19.6152 H   0  0  0  0  0  0  0  0  0  0  0  0
    2.8319   26.4940   18.5862 H   0  0  0  0  0  0  0  0  0  0  0  0
    3.5944   23.8127   16.4301 H   0  0  0  0  0  0  0  0  0  0  0  0
    2.0264   22.8033   14.7930 H   0  0  0  0  0  0  0  0  0  0  0  0
   -1.2811   24.6088   16.9143 H   0  0  0  0  0  0  0  0  0  0  0  0
    0.2760   25.5921   18.5245 H   0  0  0  0  0  0  0  0  0  0  0  0
   -3.0176   15.1783   14.9504 H   0  0  0  0  0  0  0  0  0  0  0  0
  1  2  1  0  0  0  0
  1 17  1  0  0  0  0
  1 31  1  0  0  0  0
  2  3  1  0  0  0  0
  2  4  1  0  0  0  0
  2 32  1  6  0  0  0
  3  8  1  0  0  0  0
  3 33  1  0  0  0  0
  3 34  1  0  0  0  0
  4  5  2  0  0  0  0
  4  6  1  0  0  0  0
  6  7  1  0  0  0  0
  7 35  1  0  0  0  0
  7 36  1  0  0  0  0
  7 37  1  0  0  0  0
  8  9  2  0  0  0  0
  8 13  1  0  0  0  0
  9 10  1  0  0  0  0
  9 38  1  0  0  0  0
 10 11  2  0  0  0  0
 10 39  1  0  0  0  0
 11 12  1  0  0  0  0
 11 40  1  0  0  0  0
 12 13  2  0  0  0  0
 12 14  1  0  0  0  0
 13 41  1  0  0  0  0
 14 15  2  0  0  0  0
 14 16  1  0  0  0  0
 15 42  1  0  0  0  0
 15 55  1  0  0  0  0
 16 43  1  0  0  0  0
 16 44  1  0  0  0  0
 17 18  1  0  0  0  0
 17 20  2  0  0  0  0
 18 19  1  0  0  0  0
 18 45  1  0  0  0  0
 18 46  1  0  0  0  0
 19 28  1  0  0  0  0
 19 47  1  0  0  0  0
 21 22  1  0  0  0  0
 21 48  1  0  0  0  0
 21 49  1  0  0  0  0
 21 50  1  0  0  0  0
 22 23  2  0  0  0  0
 22 27  1  0  0  0  0
 23 24  1  0  0  0  0
 23 51  1  0  0  0  0
 24 25  2  0  0  0  0
 24 52  1  0  0  0  0
 25 26  1  0  0  0  0
 25 28  1  0  0  0  0
 26 27  2  0  0  0  0
 26 53  1  0  0  0  0
 27 54  1  0  0  0  0
 28 29  2  0  0  0  0
 28 30  2  0  0  0  0
M  END
$$$$
