APZ
 OpenBabel04041914293D

 20 21  0  0  0  0  0  0  0  0999 V2000
   15.8624   17.0215   23.9067 N   0  3  0  0  0  0  0  0  0  0  0  0
   15.3917   16.7975   22.6360 C   0  0  0  0  0  0  0  0  0  0  0  0
   14.2362   16.4422   22.4372 O   0  0  0  0  0  0  0  0  0  0  0  0
   16.3344   17.0032   21.5222 C   0  0  0  0  0  0  0  0  0  0  0  0
   15.9191   16.7973   20.1995 C   0  0  0  0  0  0  0  0  0  0  0  0
   16.8215   16.9979   19.1515 C   0  0  0  0  0  0  0  0  0  0  0  0
   18.1338   17.4023   19.4121 C   0  0  0  0  0  0  0  0  0  0  0  0
   18.5395   17.6032   20.7329 C   0  0  0  0  0  0  0  0  0  0  0  0
   17.6405   17.4048   21.7868 C   0  0  0  0  0  0  0  0  0  0  0  0
   18.0880   17.6259   23.1759 C   0  0  0  0  0  0  0  0  0  0  0  0
   19.2302   17.9799   23.4344 O   0  0  0  0  0  0  0  0  0  0  0  0
   17.1608   17.4172   24.1675 N   0  3  0  0  0  0  0  0  0  0  0  0
   19.0233   17.5980   18.3760 N   0  0  0  0  0  0  0  0  0  0  0  0
   15.2203   16.8797   24.6796 H   0  0  0  0  0  0  0  0  0  0  0  0
   14.8995   16.4843   19.9802 H   0  0  0  0  0  0  0  0  0  0  0  0
   16.4954   16.8371   18.1255 H   0  0  0  0  0  0  0  0  0  0  0  0
   19.5599   17.9162   20.9464 H   0  0  0  0  0  0  0  0  0  0  0  0
   17.4515   17.5675   25.1291 H   0  0  0  0  0  0  0  0  0  0  0  0
   18.7379   17.4561   17.4172 H   0  0  0  0  0  0  0  0  0  0  0  0
   19.9720   17.8932   18.5643 H   0  0  0  0  0  0  0  0  0  0  0  0
  1  2  1  0  0  0  0
  1 12  1  0  0  0  0
  1 14  1  0  0  0  0
  2  3  2  0  0  0  0
  2  4  1  0  0  0  0
  4  5  2  0  0  0  0
  4  9  1  0  0  0  0
  5  6  1  0  0  0  0
  5 15  1  0  0  0  0
  6  7  2  0  0  0  0
  6 16  1  0  0  0  0
  7  8  1  0  0  0  0
  7 13  1  0  0  0  0
  8  9  2  0  0  0  0
  8 17  1  0  0  0  0
  9 10  1  0  0  0  0
 10 11  2  0  0  0  0
 10 12  1  0  0  0  0
 12 18  1  0  0  0  0
 13 19  1  0  0  0  0
 13 20  1  0  0  0  0
M  CHG  2   1   1  12   1
M  END
$$$$
