ARL
 OpenBabel04041915583D

 56 56  0  0  0  0  0  0  0  0999 V2000
   29.4379   25.7547   10.5924 C   0  0  0  0  0  0  0  0  0  0  0  0
   28.1695   25.0690   10.1300 C   0  0  0  0  0  0  0  0  0  0  0  0
   27.0744   25.8686    9.5423 C   0  0  0  0  0  0  0  0  0  0  0  0
   27.0590   27.1981    9.3153 C   0  0  0  0  0  0  0  0  0  0  0  0
   25.9430   27.9580    8.7365 C   0  0  0  0  0  0  0  0  0  0  0  0
   25.9905   29.1673    8.1055 C   0  0  0  0  0  0  0  0  0  0  0  0
   27.3295   29.8566    7.8669 C   0  0  0  0  0  0  0  0  0  0  0  0
   24.7311   29.8878    7.5759 C   0  0  0  0  0  0  0  0  0  0  0  0
   23.4425   29.2946    7.6217 C   0  0  0  0  0  0  0  0  0  0  0  0
   22.2446   29.9195    7.1614 C   0  0  0  0  0  0  0  0  0  0  0  0
   22.3771   31.2257    6.6215 C   0  0  0  0  0  0  0  0  0  0  0  0
   23.6276   31.8962    6.5352 C   0  0  0  0  0  0  0  0  0  0  0  0
   24.7795   31.1918    7.0148 C   0  0  0  0  0  0  0  0  0  0  0  0
   23.7773   33.3426    5.9485 C   0  0  0  0  0  0  0  0  0  0  0  0
   22.4512   34.0582    5.5778 C   0  0  0  0  0  0  0  0  0  0  0  0
   24.6232   33.3206    4.6538 C   0  0  0  0  0  0  0  0  0  0  0  0
   24.4793   34.2849    6.9568 C   0  0  0  0  0  0  0  0  0  0  0  0
   20.8467   29.2129    7.2837 C   0  0  0  0  0  0  0  0  0  0  0  0
   20.1109   29.0535    5.9297 C   0  0  0  0  0  0  0  0  0  0  0  0
   19.8885   30.0059    8.2044 C   0  0  0  0  0  0  0  0  0  0  0  0
   20.9330   27.7899    7.8889 C   0  0  0  0  0  0  0  0  0  0  0  0
   27.9954   23.7277   10.2264 C   0  0  0  0  0  0  0  0  0  0  0  0
   28.8954   22.6102   10.7767 C   0  0  0  0  0  0  0  0  0  0  0  0
   30.0109   22.9544   11.2331 O   0  0  0  0  0  0  0  0  0  0  0  0
   28.3866   21.4468   10.6826 O   0  0  0  0  0  0  0  0  0  0  0  0
   29.4218   26.8358   10.4399 H   0  0  0  0  0  0  0  0  0  0  0  0
   30.3163   25.4014   10.0409 H   0  0  0  0  0  0  0  0  0  0  0  0
   29.6023   25.6197   11.6667 H   0  0  0  0  0  0  0  0  0  0  0  0
   26.2051   25.2819    9.2462 H   0  0  0  0  0  0  0  0  0  0  0  0
   27.9150   27.7890    9.6100 H   0  0  0  0  0  0  0  0  0  0  0  0
   24.9953   27.4543    8.8914 H   0  0  0  0  0  0  0  0  0  0  0  0
   28.1906   29.2899    8.2340 H   0  0  0  0  0  0  0  0  0  0  0  0
   27.3737   30.8307    8.3649 H   0  0  0  0  0  0  0  0  0  0  0  0
   27.5193   29.9909    6.7962 H   0  0  0  0  0  0  0  0  0  0  0  0
   23.3624   28.2972    8.0379 H   0  0  0  0  0  0  0  0  0  0  0  0
   21.4781   31.7267    6.2710 H   0  0  0  0  0  0  0  0  0  0  0  0
   25.7407   31.6977    6.9450 H   0  0  0  0  0  0  0  0  0  0  0  0
   22.6482   35.0603    5.1662 H   0  0  0  0  0  0  0  0  0  0  0  0
   21.8084   34.1996    6.4529 H   0  0  0  0  0  0  0  0  0  0  0  0
   21.8889   33.5144    4.8123 H   0  0  0  0  0  0  0  0  0  0  0  0
   25.5997   32.8520    4.8058 H   0  0  0  0  0  0  0  0  0  0  0  0
   24.8113   34.3397    4.2859 H   0  0  0  0  0  0  0  0  0  0  0  0
   24.1067   32.7802    3.8531 H   0  0  0  0  0  0  0  0  0  0  0  0
   23.9107   34.3575    7.8900 H   0  0  0  0  0  0  0  0  0  0  0  0
   24.5680   35.3037    6.5520 H   0  0  0  0  0  0  0  0  0  0  0  0
   25.4947   33.9579    7.1973 H   0  0  0  0  0  0  0  0  0  0  0  0
   19.1410   28.5498    6.0723 H   0  0  0  0  0  0  0  0  0  0  0  0
   20.6815   28.4450    5.2219 H   0  0  0  0  0  0  0  0  0  0  0  0
   19.8888   30.0179    5.4621 H   0  0  0  0  0  0  0  0  0  0  0  0
   20.3194   30.1646    9.1965 H   0  0  0  0  0  0  0  0  0  0  0  0
   18.9385   29.4664    8.3426 H   0  0  0  0  0  0  0  0  0  0  0  0
   19.6313   30.9809    7.7792 H   0  0  0  0  0  0  0  0  0  0  0  0
   21.5733   27.1370    7.2856 H   0  0  0  0  0  0  0  0  0  0  0  0
   19.9459   27.3120    7.9367 H   0  0  0  0  0  0  0  0  0  0  0  0
   21.3199   27.8183    8.9135 H   0  0  0  0  0  0  0  0  0  0  0  0
   27.0647   23.2880    9.8689 H   0  0  0  0  0  0  0  0  0  0  0  0
  1  2  1  0  0  0  0
  1 26  1  0  0  0  0
  1 27  1  0  0  0  0
  1 28  1  0  0  0  0
  2  3  1  0  0  0  0
  2 22  2  0  0  0  0
  3  4  2  0  0  0  0
  3 29  1  0  0  0  0
  4  5  1  0  0  0  0
  4 30  1  0  0  0  0
  5  6  2  0  0  0  0
  5 31  1  0  0  0  0
  6  7  1  0  0  0  0
  6  8  1  0  0  0  0
  7 32  1  0  0  0  0
  7 33  1  0  0  0  0
  7 34  1  0  0  0  0
  8  9  2  0  0  0  0
  8 13  1  0  0  0  0
  9 10  1  0  0  0  0
  9 35  1  0  0  0  0
 10 11  2  0  0  0  0
 10 18  1  0  0  0  0
 11 12  1  0  0  0  0
 11 36  1  0  0  0  0
 12 13  2  0  0  0  0
 12 14  1  0  0  0  0
 13 37  1  0  0  0  0
 14 15  1  0  0  0  0
 14 16  1  0  0  0  0
 14 17  1  0  0  0  0
 15 38  1  0  0  0  0
 15 39  1  0  0  0  0
 15 40  1  0  0  0  0
 16 41  1  0  0  0  0
 16 42  1  0  0  0  0
 16 43  1  0  0  0  0
 17 44  1  0  0  0  0
 17 45  1  0  0  0  0
 17 46  1  0  0  0  0
 18 19  1  0  0  0  0
 18 20  1  0  0  0  0
 18 21  1  0  0  0  0
 19 47  1  0  0  0  0
 19 48  1  0  0  0  0
 19 49  1  0  0  0  0
 20 50  1  0  0  0  0
 20 51  1  0  0  0  0
 20 52  1  0  0  0  0
 21 53  1  0  0  0  0
 21 54  1  0  0  0  0
 21 55  1  0  0  0  0
 22 23  1  0  0  0  0
 22 56  1  0  0  0  0
 23 24  2  0  0  0  0
 23 25  1  0  0  0  0
M  END
$$$$
