ATR
 OpenBabel04041913553D

 42 44  0  0  1  0  0  0  0  0999 V2000
   37.2569   -2.8208   23.0670 P   0  0  0  0  0  0  0  0  0  0  0  0
   37.8303   -2.2448   24.3596 O   0  0  0  0  0  0  0  0  0  0  0  0
   35.7234   -2.8493   23.1214 O   0  0  0  0  0  0  0  0  0  0  0  0
   37.8016   -2.1522   21.8160 O   0  0  0  0  0  0  0  0  0  0  0  0
   38.9406   -5.2897   22.7796 P   0  0  2  0  0  0  0  0  0  0  0  0
   38.4397   -6.7390   22.7881 O   0  0  0  0  0  0  0  0  0  0  0  0
   40.1695   -4.9839   23.5978 O   0  0  0  0  0  0  0  0  0  0  0  0
   37.6854   -4.3650   23.0796 O   0  0  0  0  0  0  0  0  0  0  0  0
   39.2672   -4.9941   21.2205 O   0  0  0  0  0  0  0  0  0  0  0  0
   38.0646   -5.0249   20.5133 C   0  0  0  0  0  0  0  0  0  0  0  0
   37.7854   -6.3252   19.8386 C   0  0  1  0  0  0  0  0  0  0  0  0
   36.8348   -5.7605   18.8761 O   0  0  0  0  0  0  0  0  0  0  0  0
   38.9057   -7.0349   19.0646 C   0  0  1  0  0  0  0  0  0  0  0  0
   39.5286   -8.2089   19.6872 O   0  0  0  0  0  0  0  0  0  0  0  0
   38.1049   -7.4400   17.8289 C   0  0  1  0  0  0  0  0  0  0  0  0
   37.5065   -8.6874   18.1513 O   0  0  0  0  0  0  0  0  0  0  0  0
   36.7027   -9.5038   16.9589 P   0  0  0  0  0  0  0  0  0  0  0  0
   35.5574   -8.6389   16.4999 O   0  0  0  0  0  0  0  0  0  0  0  0
   37.7829   -9.7011   15.9090 O   0  0  0  0  0  0  0  0  0  0  0  0
   36.3124  -10.6943   17.7927 O   0  0  0  0  0  0  0  0  0  0  0  0
   36.9513   -6.4827   17.6771 C   0  0  2  0  0  0  0  0  0  0  0  0
   36.8770   -5.6467   16.4727 N   0  3  0  0  0  0  0  0  0  0  0  0
   36.1407   -6.0454   15.3659 C   0  0  0  0  0  0  0  0  0  0  0  0
   36.0753   -5.0914   14.4286 N   0  0  0  0  0  0  0  0  0  0  0  0
   36.7870   -4.0567   14.9206 C   0  0  0  0  0  0  0  0  0  0  0  0
   37.0590   -2.7734   14.4048 C   0  0  0  0  0  0  0  0  0  0  0  0
   36.6200   -2.3641   13.1217 N   0  0  0  0  0  0  0  0  0  0  0  0
   37.7935   -1.8998   15.1454 N   0  0  0  0  0  0  0  0  0  0  0  0
   38.2640   -2.3146   16.3521 C   0  0  0  0  0  0  0  0  0  0  0  0
   38.1434   -3.5389   16.9297 N   0  0  0  0  0  0  0  0  0  0  0  0
   37.3429   -4.3711   16.1976 C   0  0  0  0  0  0  0  0  0  0  0  0
   37.9970   -4.2006   19.7959 H   0  0  0  0  0  0  0  0  0  0  0  0
   37.1967   -4.8871   21.1676 H   0  0  0  0  0  0  0  0  0  0  0  0
   37.2802   -7.0310   20.5156 H   0  0  0  0  0  0  0  0  0  0  0  0
   39.7305   -6.3568   18.7989 H   0  0  0  0  0  0  0  0  0  0  0  0
   38.8123   -8.8310   19.9563 H   0  0  0  0  0  0  0  0  0  0  0  0
   38.7167   -7.5450   16.9437 H   0  0  0  0  0  0  0  0  0  0  0  0
   36.0167   -7.0246   17.7298 H   0  0  0  0  0  0  0  0  0  0  0  0
   35.6593   -7.0117   15.2936 H   0  0  0  0  0  0  0  0  0  0  0  0
   36.8220   -1.4487   12.8084 H   0  0  0  0  0  0  0  0  0  0  0  0
   36.1301   -3.0675   12.5825 H   0  0  0  0  0  0  0  0  0  0  0  0
   38.8544   -1.5982   16.9089 H   0  0  0  0  0  0  0  0  0  0  0  0
  1  8  1  0  0  0  0
  1  4  2  0  0  0  0
  1  3  1  0  0  0  0
  1  2  1  0  0  0  0
  5  8  1  1  0  0  0
  5  9  1  0  0  0  0
  5  7  2  0  0  0  0
  5  6  1  0  0  0  0
  9 10  1  0  0  0  0
 10 11  1  0  0  0  0
 10 32  1  0  0  0  0
 10 33  1  0  0  0  0
 11 13  1  0  0  0  0
 11 12  1  0  0  0  0
 11 34  1  1  0  0  0
 12 21  1  0  0  0  0
 13 15  1  0  0  0  0
 13 14  1  0  0  0  0
 13 35  1  6  0  0  0
 14 36  1  0  0  0  0
 15 21  1  0  0  0  0
 15 16  1  0  0  0  0
 15 37  1  6  0  0  0
 16 17  1  0  0  0  0
 17 20  2  0  0  0  0
 17 19  1  0  0  0  0
 17 18  1  0  0  0  0
 21 22  1  0  0  0  0
 21 38  1  6  0  0  0
 22 31  1  0  0  0  0
 22 23  2  0  0  0  0
 23 24  1  0  0  0  0
 23 39  1  0  0  0  0
 24 25  1  0  0  0  0
 25 31  2  0  0  0  0
 25 26  1  0  0  0  0
 26 28  2  0  0  0  0
 26 27  1  0  0  0  0
 27 40  1  0  0  0  0
 27 41  1  0  0  0  0
 28 29  1  0  0  0  0
 29 30  2  0  0  0  0
 29 42  1  0  0  0  0
 30 31  1  0  0  0  0
M  CHG  1  22   1
M  END
$$$$
