AZM
 OpenBabel04041917473D

 19 19  0  0  0  0  0  0  0  0999 V2000
   -5.3939    2.0527   15.5741 C   0  0  0  0  0  0  0  0  0  0  0  0
   -4.9562    3.7700   14.0472 C   0  0  0  0  0  0  0  0  0  0  0  0
   -5.6439    6.0291   13.4216 C   0  0  0  0  0  0  0  0  0  0  0  0
   -5.2816    7.0841   12.4095 C   0  0  0  0  0  0  0  0  0  0  0  0
   -6.0483   -0.5416   16.1142 N   0  0  0  0  0  0  0  0  0  0  0  0
   -4.1950    2.7201   13.8216 N   0  0  0  0  0  0  0  0  0  0  0  0
   -4.4570    1.6990   14.7179 N   0  0  0  0  0  0  0  0  0  0  0  0
   -4.8807    4.8945   13.2760 N   0  0  0  0  0  0  0  0  0  0  0  0
   -5.0713    0.9906   17.8860 O   0  0  0  0  0  0  0  0  0  0  0  0
   -7.4249    1.3443   17.0204 O   0  0  0  0  0  0  0  0  0  0  0  0
   -6.5242    6.2357   14.2427 O   0  0  0  0  0  0  0  0  0  0  0  0
   -6.0300    0.9954   16.8049 S   0  0  0  0  0  0  0  0  0  0  0  0
   -6.0374    3.6057   15.3561 S   0  0  0  0  0  0  0  0  0  0  0  0
   -5.9308    7.9540   12.5563 H   0  0  0  0  0  0  0  0  0  0  0  0
   -5.4311    6.6967   11.3998 H   0  0  0  0  0  0  0  0  0  0  0  0
   -4.2442    7.3861   12.5539 H   0  0  0  0  0  0  0  0  0  0  0  0
   -6.0477   -1.3047   16.7847 H   0  0  0  0  0  0  0  0  0  0  0  0
   -5.4558   -0.6308   15.2888 H   0  0  0  0  0  0  0  0  0  0  0  0
   -4.1809    4.8485   12.5475 H   0  0  0  0  0  0  0  0  0  0  0  0
  1 13  1  0  0  0  0
  1 12  1  0  0  0  0
  1  7  2  0  0  0  0
  2  6  2  0  0  0  0
  2  8  1  0  0  0  0
  2 13  1  0  0  0  0
  3  8  1  0  0  0  0
  3 11  2  0  0  0  0
  3  4  1  0  0  0  0
  4 14  1  0  0  0  0
  4 15  1  0  0  0  0
  4 16  1  0  0  0  0
  5 12  1  0  0  0  0
  5 17  1  0  0  0  0
  5 18  1  0  0  0  0
  6  7  1  0  0  0  0
  8 19  1  0  0  0  0
  9 12  2  0  0  0  0
 10 12  2  0  0  0  0
M  END
$$$$
