AZM
 OpenBabel04041913593D

 19 19  0  0  0  0  0  0  0  0999 V2000
   34.7457   17.2294  -17.9186 C   0  0  0  0  0  0  0  0  0  0  0  0
   34.3794   16.4697  -20.1221 C   0  0  0  0  0  0  0  0  0  0  0  0
   32.9307   14.7692  -20.9847 C   0  0  0  0  0  0  0  0  0  0  0  0
   32.4525   14.0054  -22.1669 C   0  0  0  0  0  0  0  0  0  0  0  0
   36.5225   17.6423  -15.9513 N   0  0  0  0  0  0  0  0  0  0  0  0
   35.0547   17.6055  -20.1000 N   0  0  0  0  0  0  0  0  0  0  0  0
   35.2178   18.0800  -18.7944 N   0  0  0  0  0  0  0  0  0  0  0  0
   33.7900   15.8287  -21.2064 N   0  0  0  0  0  0  0  0  0  0  0  0
   34.6864   16.0059  -15.7003 O   0  0  0  0  0  0  0  0  0  0  0  0
   34.1620   18.4577  -15.7070 O   0  0  0  0  0  0  0  0  0  0  0  0
   32.5294   14.3758  -19.8896 O   0  0  0  0  0  0  0  0  0  0  0  0
   34.9075   17.3108  -16.1986 S   0  0  0  0  0  0  0  0  0  0  0  0
   34.1027   15.8400  -18.5532 S   0  0  0  0  0  0  0  0  0  0  0  0
   31.8107   13.1895  -21.7968 H   0  0  0  0  0  0  0  0  0  0  0  0
   33.3026   13.5799  -22.6924 H   0  0  0  0  0  0  0  0  0  0  0  0
   31.8714   14.6587  -22.8093 H   0  0  0  0  0  0  0  0  0  0  0  0
   36.8483   17.7678  -15.0049 H   0  0  0  0  0  0  0  0  0  0  0  0
   37.1372   17.6629  -16.7580 H   0  0  0  0  0  0  0  0  0  0  0  0
   33.8928   16.1991  -22.1462 H   0  0  0  0  0  0  0  0  0  0  0  0
  1  7  2  0  0  0  0
  1 12  1  0  0  0  0
  1 13  1  0  0  0  0
  2  6  2  0  0  0  0
  2  8  1  0  0  0  0
  2 13  1  0  0  0  0
  3  4  1  0  0  0  0
  3  8  1  0  0  0  0
  3 11  2  0  0  0  0
  4 14  1  0  0  0  0
  4 15  1  0  0  0  0
  4 16  1  0  0  0  0
  5 12  1  0  0  0  0
  5 17  1  0  0  0  0
  5 18  1  0  0  0  0
  6  7  1  0  0  0  0
  8 19  1  0  0  0  0
  9 12  2  0  0  0  0
 10 12  2  0  0  0  0
M  END
$$$$
