AZM
 OpenBabel04041917473D

 19 19  0  0  0  0  0  0  0  0999 V2000
   -4.9908    2.2252   16.2789 C   0  0  0  0  0  0  0  0  0  0  0  0
   -4.3431    4.0134   14.9415 C   0  0  0  0  0  0  0  0  0  0  0  0
   -5.2068    5.8460   13.5808 C   0  0  0  0  0  0  0  0  0  0  0  0
   -4.6678    6.9687   12.7466 C   0  0  0  0  0  0  0  0  0  0  0  0
   -5.2531   -0.4898   16.2037 N   0  0  0  0  0  0  0  0  0  0  0  0
   -3.2987    3.3428   15.3821 N   0  0  0  0  0  0  0  0  0  0  0  0
   -3.6818    2.2668   16.1399 N   0  0  0  0  0  0  0  0  0  0  0  0
   -4.1963    5.1142   14.1522 N   0  0  0  0  0  0  0  0  0  0  0  0
   -5.3374    0.7919   18.3874 O   0  0  0  0  0  0  0  0  0  0  0  0
   -7.2275    0.9661   16.7197 O   0  0  0  0  0  0  0  0  0  0  0  0
   -6.4161    5.6573   13.6879 O   0  0  0  0  0  0  0  0  0  0  0  0
   -5.8312    0.8650   17.0281 S   0  0  0  0  0  0  0  0  0  0  0  0
   -5.8570    3.3989   15.4187 S   0  0  0  0  0  0  0  0  0  0  0  0
   -5.5020    7.5227   12.3206 H   0  0  0  0  0  0  0  0  0  0  0  0
   -4.0548    6.5520   11.9434 H   0  0  0  0  0  0  0  0  0  0  0  0
   -4.0699    7.6292   13.3777 H   0  0  0  0  0  0  0  0  0  0  0  0
   -5.3512   -1.3617   16.7041 H   0  0  0  0  0  0  0  0  0  0  0  0
   -4.3872   -0.3310   15.6821 H   0  0  0  0  0  0  0  0  0  0  0  0
   -3.2313    5.3595   13.9752 H   0  0  0  0  0  0  0  0  0  0  0  0
  1 13  1  0  0  0  0
  1 12  1  0  0  0  0
  1  7  2  0  0  0  0
  2  6  2  0  0  0  0
  2  8  1  0  0  0  0
  2 13  1  0  0  0  0
  3  8  1  0  0  0  0
  3 11  2  0  0  0  0
  3  4  1  0  0  0  0
  4 14  1  0  0  0  0
  4 15  1  0  0  0  0
  4 16  1  0  0  0  0
  5 12  1  0  0  0  0
  5 17  1  0  0  0  0
  5 18  1  0  0  0  0
  6  7  1  0  0  0  0
  8 19  1  0  0  0  0
  9 12  2  0  0  0  0
 10 12  2  0  0  0  0
M  END
$$$$
