AZM
 OpenBabel04041917473D

 19 19  0  0  0  0  0  0  0  0999 V2000
   -5.1904    2.3861   16.1942 C   0  0  0  0  0  0  0  0  0  0  0  0
   -4.6214    4.3323   15.0369 C   0  0  0  0  0  0  0  0  0  0  0  0
   -5.5279    6.0466   13.6162 C   0  0  0  0  0  0  0  0  0  0  0  0
   -5.1312    7.2068   12.7312 C   0  0  0  0  0  0  0  0  0  0  0  0
   -4.7209   -0.1996   16.7480 N   0  0  0  0  0  0  0  0  0  0  0  0
   -3.5675    3.7735   15.5775 N   0  0  0  0  0  0  0  0  0  0  0  0
   -3.8901    2.6199   16.2316 N   0  0  0  0  0  0  0  0  0  0  0  0
   -4.4823    5.4571   14.2557 N   0  0  0  0  0  0  0  0  0  0  0  0
   -5.7186    1.3878   18.4668 O   0  0  0  0  0  0  0  0  0  0  0  0
   -7.1019    0.5708   16.5131 O   0  0  0  0  0  0  0  0  0  0  0  0
   -6.6993    5.7357   13.6648 O   0  0  0  0  0  0  0  0  0  0  0  0
   -5.8434    1.0290   17.0711 S   0  0  0  0  0  0  0  0  0  0  0  0
   -6.1064    3.5281   15.3615 S   0  0  0  0  0  0  0  0  0  0  0  0
   -6.0467    7.6023   12.2798 H   0  0  0  0  0  0  0  0  0  0  0  0
   -4.4721    6.8732   11.9237 H   0  0  0  0  0  0  0  0  0  0  0  0
   -4.6652    7.9954   13.3251 H   0  0  0  0  0  0  0  0  0  0  0  0
   -4.8148   -1.0670   17.2700 H   0  0  0  0  0  0  0  0  0  0  0  0
   -3.7752    0.1281   16.5124 H   0  0  0  0  0  0  0  0  0  0  0  0
   -3.5343    5.7804   14.1310 H   0  0  0  0  0  0  0  0  0  0  0  0
  1 13  1  0  0  0  0
  1 12  1  0  0  0  0
  1  7  2  0  0  0  0
  2  6  2  0  0  0  0
  2  8  1  0  0  0  0
  2 13  1  0  0  0  0
  3  8  1  0  0  0  0
  3 11  2  0  0  0  0
  3  4  1  0  0  0  0
  4 14  1  0  0  0  0
  4 15  1  0  0  0  0
  4 16  1  0  0  0  0
  5 12  1  0  0  0  0
  5 17  1  0  0  0  0
  5 18  1  0  0  0  0
  6  7  1  0  0  0  0
  8 19  1  0  0  0  0
  9 12  2  0  0  0  0
 10 12  2  0  0  0  0
M  END
$$$$
