AZN
 OpenBabel04041916083D

 28 30  0  0  0  0  0  0  0  0999 V2000
   36.8729   54.0442   78.8742 C   0  0  0  0  0  0  0  0  0  0  0  0
   38.8379   53.5889   80.4736 C   0  0  0  0  0  0  0  0  0  0  0  0
   37.2183   52.8191   78.2287 C   0  0  0  0  0  0  0  0  0  0  0  0
   35.7695   54.8367   78.4507 C   0  0  0  0  0  0  0  0  0  0  0  0
   38.3413   51.9807   78.6806 C   0  0  0  0  0  0  0  0  0  0  0  0
   36.4981   52.3395   77.1181 C   0  0  0  0  0  0  0  0  0  0  0  0
   35.0830   54.2872   77.3103 C   0  0  0  0  0  0  0  0  0  0  0  0
   40.1972   51.5826   80.2632 C   0  0  0  0  0  0  0  0  0  0  0  0
   40.6639   53.1508   82.0240 C   0  0  0  0  0  0  0  0  0  0  0  0
   40.9538   51.9595   81.3668 C   0  0  0  0  0  0  0  0  0  0  0  0
   35.4416   53.0943   76.6373 C   0  0  0  0  0  0  0  0  0  0  0  0
   37.7220   54.4675   80.0382 C   0  0  0  0  0  0  0  0  0  0  0  0
   39.1410   52.4030   79.8296 C   0  0  0  0  0  0  0  0  0  0  0  0
   39.6134   53.9602   81.5767 C   0  0  0  0  0  0  0  0  0  0  0  0
   33.6848   53.7602   74.8360 O   0  0  0  0  0  0  0  0  0  0  0  0
   34.0167   51.3552   75.2498 O   0  0  0  0  0  0  0  0  0  0  0  0
   34.0279   55.0420   76.8672 O   0  0  0  0  0  0  0  0  0  0  0  0
   35.4181   55.9565   78.9634 O   0  0  0  0  0  0  0  0  0  0  0  0
   35.7184   52.6908   74.0651 O   0  0  0  0  0  0  0  0  0  0  0  0
   37.5699   55.4944   80.6889 O   0  0  0  0  0  0  0  0  0  0  0  0
   38.6337   50.9412   78.1165 O   0  0  0  0  0  0  0  0  0  0  0  0
   34.6131   52.6726   75.0359 S   0  0  0  0  0  0  0  0  0  0  0  0
   36.7958   51.4111   76.6265 H   0  0  0  0  0  0  0  0  0  0  0  0
   40.4293   50.6513   79.7458 H   0  0  0  0  0  0  0  0  0  0  0  0
   41.2455   53.4569   82.8823 H   0  0  0  0  0  0  0  0  0  0  0  0
   41.7666   51.3314   81.7165 H   0  0  0  0  0  0  0  0  0  0  0  0
   39.3926   54.8902   82.0913 H   0  0  0  0  0  0  0  0  0  0  0  0
   34.1504   55.1074   75.8999 H   0  0  0  0  0  0  0  0  0  0  0  0
  1  3  2  0  0  0  0
  1  4  1  0  0  0  0
  1 12  1  0  0  0  0
  2 12  1  0  0  0  0
  2 13  2  0  0  0  0
  2 14  1  0  0  0  0
  3  5  1  0  0  0  0
  3  6  1  0  0  0  0
  4  7  2  0  0  0  0
  4 18  1  0  0  0  0
  5 13  1  0  0  0  0
  5 21  2  0  0  0  0
  6 11  2  0  0  0  0
  6 23  1  0  0  0  0
  7 11  1  0  0  0  0
  7 17  1  0  0  0  0
  8 10  2  0  0  0  0
  8 13  1  0  0  0  0
  8 24  1  0  0  0  0
  9 10  1  0  0  0  0
  9 14  2  0  0  0  0
  9 25  1  0  0  0  0
 10 26  1  0  0  0  0
 11 22  1  0  0  0  0
 12 20  2  0  0  0  0
 14 27  1  0  0  0  0
 15 22  2  0  0  0  0
 16 22  2  0  0  0  0
 17 28  1  0  0  0  0
 19 22  1  0  0  0  0
M  END
$$$$
