BAB
 OpenBabel04041914083D

 43 46  0  0  0  0  0  0  0  0999 V2000
   12.1662  -11.8033   23.0102 C   0  0  0  0  0  0  0  0  0  0  0  0
   12.5788  -10.7069   22.2279 C   0  0  0  0  0  0  0  0  0  0  0  0
   13.6159  -10.8345   21.2862 C   0  0  0  0  0  0  0  0  0  0  0  0
   14.2231  -12.0908   21.1289 C   0  0  0  0  0  0  0  0  0  0  0  0
   13.8069  -13.1495   21.9206 C   0  0  0  0  0  0  0  0  0  0  0  0
   12.8106  -13.0463   22.8723 C   0  0  0  0  0  0  0  0  0  0  0  0
   11.0675  -11.7171   23.9873 C   0  0  0  0  0  0  0  0  0  0  0  0
   15.4160  -13.7879   20.5505 C   0  0  0  0  0  0  0  0  0  0  0  0
   16.3953  -14.7338   19.9248 C   0  0  0  0  0  0  0  0  0  0  0  0
   10.2735  -12.7653   24.1237 N   0  0  0  0  0  0  0  0  0  0  0  0
   10.9161  -10.6525   24.7288 N   0  0  0  0  0  0  0  0  0  0  0  0
   15.2094  -12.5088   20.2851 N   0  0  0  0  0  0  0  0  0  0  0  0
   14.5779  -14.2071   21.5454 N   0  3  0  0  0  0  0  0  0  0  0  0
   16.6941  -13.0043   14.1898 C   0  0  0  0  0  0  0  0  0  0  0  0
   17.3294  -11.9145   14.8268 C   0  0  0  0  0  0  0  0  0  0  0  0
   17.5656  -11.8899   16.1992 C   0  0  0  0  0  0  0  0  0  0  0  0
   17.1893  -12.9974   16.9465 C   0  0  0  0  0  0  0  0  0  0  0  0
   16.5387  -14.0638   16.3462 C   0  0  0  0  0  0  0  0  0  0  0  0
   16.2724  -14.1099   14.9731 C   0  0  0  0  0  0  0  0  0  0  0  0
   16.4799  -12.9693   12.7209 C   0  0  0  0  0  0  0  0  0  0  0  0
   16.7126  -14.3015   18.5433 C   0  0  0  0  0  0  0  0  0  0  0  0
   16.1972  -14.0674   12.0514 N   0  0  0  0  0  0  0  0  0  0  0  0
   16.5772  -11.8326   12.0592 N   0  0  0  0  0  0  0  0  0  0  0  0
   17.3720  -13.2033   18.2678 N   0  0  0  0  0  0  0  0  0  0  0  0
   16.2563  -14.9129   17.4006 N   0  3  0  0  0  0  0  0  0  0  0  0
   12.0926   -9.7359   22.3150 H   0  0  0  0  0  0  0  0  0  0  0  0
   13.9415   -9.9945   20.6771 H   0  0  0  0  0  0  0  0  0  0  0  0
   12.5542  -13.9049   23.4807 H   0  0  0  0  0  0  0  0  0  0  0  0
   16.0020  -15.7559   19.9384 H   0  0  0  0  0  0  0  0  0  0  0  0
   17.3152  -14.7261   20.5230 H   0  0  0  0  0  0  0  0  0  0  0  0
    9.5453  -12.8156   24.8239 H   0  0  0  0  0  0  0  0  0  0  0  0
   10.3746  -13.5684   23.5116 H   0  0  0  0  0  0  0  0  0  0  0  0
   10.1854  -10.5779   25.4277 H   0  0  0  0  0  0  0  0  0  0  0  0
   14.5315  -15.1413   21.9228 H   0  0  0  0  0  0  0  0  0  0  0  0
   17.6887  -11.0475   14.2817 H   0  0  0  0  0  0  0  0  0  0  0  0
   18.0351  -11.0451   16.6939 H   0  0  0  0  0  0  0  0  0  0  0  0
   15.7575  -14.9680   14.5582 H   0  0  0  0  0  0  0  0  0  0  0  0
   16.0467  -14.0635   11.0516 H   0  0  0  0  0  0  0  0  0  0  0  0
   16.7668  -10.9575   12.5321 H   0  0  0  0  0  0  0  0  0  0  0  0
   16.4724  -11.7734   11.0547 H   0  0  0  0  0  0  0  0  0  0  0  0
   15.7321  -15.7794   17.3542 H   0  0  0  0  0  0  0  0  0  0  0  0
   11.5566   -9.8703   24.6432 H   0  0  0  0  0  0  0  0  0  0  0  0
   16.1444  -14.9665   12.5095 H   0  0  0  0  0  0  0  0  0  0  0  0
  1  7  1  0  0  0  0
  1  6  2  0  0  0  0
  1  2  1  0  0  0  0
  2  3  2  0  0  0  0
  2 26  1  0  0  0  0
  3  4  1  0  0  0  0
  3 27  1  0  0  0  0
  4 12  1  0  0  0  0
  4  5  2  0  0  0  0
  5 13  1  0  0  0  0
  5  6  1  0  0  0  0
  6 28  1  0  0  0  0
  7 11  2  0  0  0  0
  7 10  1  0  0  0  0
  8 13  2  0  0  0  0
  8 12  1  0  0  0  0
  8  9  1  0  0  0  0
  9 21  1  0  0  0  0
  9 29  1  0  0  0  0
  9 30  1  0  0  0  0
 10 31  1  0  0  0  0
 10 32  1  0  0  0  0
 11 33  1  0  0  0  0
 11 42  1  0  0  0  0
 13 34  1  0  0  0  0
 14 15  1  0  0  0  0
 14 20  1  0  0  0  0
 14 19  2  0  0  0  0
 15 16  2  0  0  0  0
 15 35  1  0  0  0  0
 16 17  1  0  0  0  0
 16 36  1  0  0  0  0
 17 24  1  0  0  0  0
 17 18  2  0  0  0  0
 18 19  1  0  0  0  0
 18 25  1  0  0  0  0
 19 37  1  0  0  0  0
 20 22  2  0  0  0  0
 20 23  1  0  0  0  0
 21 25  2  0  0  0  0
 21 24  1  0  0  0  0
 22 38  1  0  0  0  0
 22 43  1  0  0  0  0
 23 39  1  0  0  0  0
 23 40  1  0  0  0  0
 25 41  1  0  0  0  0
M  CHG  2  13   1  25   1
M  END
$$$$
