BAM
 OpenBabel04041914333D

 18 18  0  0  0  0  0  0  0  0999 V2000
   31.6281    5.2076   28.1725 C   0  0  0  0  0  0  0  0  0  0  0  0
   30.5186    4.7470   28.9130 C   0  0  0  0  0  0  0  0  0  0  0  0
   29.4359    5.5914   29.2016 C   0  0  0  0  0  0  0  0  0  0  0  0
   29.4453    6.9099   28.7536 C   0  0  0  0  0  0  0  0  0  0  0  0
   30.5283    7.3903   28.0215 C   0  0  0  0  0  0  0  0  0  0  0  0
   31.6082    6.5429   27.7361 C   0  0  0  0  0  0  0  0  0  0  0  0
   32.7640    4.3207   27.8686 C   0  0  0  0  0  0  0  0  0  0  0  0
   33.7982    4.7461   27.1855 N   0  0  0  0  0  0  0  0  0  0  0  0
   32.7802    3.0785   28.2686 N   0  0  0  0  0  0  0  0  0  0  0  0
   30.4733    3.7273   29.2788 H   0  0  0  0  0  0  0  0  0  0  0  0
   28.5915    5.2144   29.7745 H   0  0  0  0  0  0  0  0  0  0  0  0
   28.6000    7.5706   28.9770 H   0  0  0  0  0  0  0  0  0  0  0  0
   30.5381    8.4200   27.6712 H   0  0  0  0  0  0  0  0  0  0  0  0
   32.4327    6.9528   27.1636 H   0  0  0  0  0  0  0  0  0  0  0  0
   34.5693    4.1202   26.9870 H   0  0  0  0  0  0  0  0  0  0  0  0
   33.8561    5.6886   26.8444 H   0  0  0  0  0  0  0  0  0  0  0  0
   33.5638    2.4707   28.0561 H   0  0  0  0  0  0  0  0  0  0  0  0
   32.0223    2.6701   28.8007 H   0  0  0  0  0  0  0  0  0  0  0  0
  1  7  1  0  0  0  0
  1  6  2  0  0  0  0
  1  2  1  0  0  0  0
  2  3  2  0  0  0  0
  2 10  1  0  0  0  0
  3  4  1  0  0  0  0
  3 11  1  0  0  0  0
  4  5  2  0  0  0  0
  4 12  1  0  0  0  0
  5  6  1  0  0  0  0
  5 13  1  0  0  0  0
  6 14  1  0  0  0  0
  7  9  2  0  0  0  0
  7  8  1  0  0  0  0
  8 15  1  0  0  0  0
  8 16  1  0  0  0  0
  9 17  1  0  0  0  0
  9 18  1  0  0  0  0
M  END
$$$$
