BAM
 OpenBabel04041914093D

 18 18  0  0  0  0  0  0  0  0999 V2000
   11.8590  -11.7273   23.1296 C   0  0  0  0  0  0  0  0  0  0  0  0
   12.2879  -12.9223   22.5154 C   0  0  0  0  0  0  0  0  0  0  0  0
   13.2081  -12.9136   21.4717 C   0  0  0  0  0  0  0  0  0  0  0  0
   13.7261  -11.7068   21.0223 C   0  0  0  0  0  0  0  0  0  0  0  0
   13.3234  -10.5122   21.6058 C   0  0  0  0  0  0  0  0  0  0  0  0
   12.3958  -10.5209   22.6472 C   0  0  0  0  0  0  0  0  0  0  0  0
   10.8792  -11.7446   24.2381 C   0  0  0  0  0  0  0  0  0  0  0  0
   10.2684  -12.8677   24.5656 N   0  0  0  0  0  0  0  0  0  0  0  0
   10.6012  -10.6475   24.9135 N   0  0  0  0  0  0  0  0  0  0  0  0
   11.9277  -13.8997   22.8258 H   0  0  0  0  0  0  0  0  0  0  0  0
   13.5212  -13.8500   21.0133 H   0  0  0  0  0  0  0  0  0  0  0  0
   14.4486  -11.6958   20.2099 H   0  0  0  0  0  0  0  0  0  0  0  0
   13.7300   -9.5679   21.2489 H   0  0  0  0  0  0  0  0  0  0  0  0
   12.1125   -9.5533   23.0510 H   0  0  0  0  0  0  0  0  0  0  0  0
    9.5953  -12.9245   25.3150 H   0  0  0  0  0  0  0  0  0  0  0  0
   10.4445  -13.7263   24.0626 H   0  0  0  0  0  0  0  0  0  0  0  0
    9.9345  -10.6343   25.6779 H   0  0  0  0  0  0  0  0  0  0  0  0
   11.0517   -9.7669   24.7020 H   0  0  0  0  0  0  0  0  0  0  0  0
  1  7  1  0  0  0  0
  1  6  2  0  0  0  0
  1  2  1  0  0  0  0
  2  3  2  0  0  0  0
  2 10  1  0  0  0  0
  3  4  1  0  0  0  0
  3 11  1  0  0  0  0
  4  5  2  0  0  0  0
  4 12  1  0  0  0  0
  5  6  1  0  0  0  0
  5 13  1  0  0  0  0
  6 14  1  0  0  0  0
  7  9  2  0  0  0  0
  7  8  1  0  0  0  0
  8 15  1  0  0  0  0
  8 16  1  0  0  0  0
  9 17  1  0  0  0  0
  9 18  1  0  0  0  0
M  END
$$$$
