BB2
 OpenBabel04041917303D

 60 60  0  0  1  0  0  0  0  0999 V2000
   -5.0182   44.3626   55.2203 C   0  0  0  0  0  0  0  0  0  0  0  0
   -4.4221   44.0853   53.8653 C   0  0  0  0  0  0  0  0  0  0  0  0
   -4.3581   44.9731   52.9878 O   0  0  0  0  0  0  0  0  0  0  0  0
   -3.9949   42.8133   53.6022 N   0  0  0  0  0  0  0  0  0  0  0  0
   -3.5504   42.5049   52.3057 O   0  0  0  0  0  0  0  0  0  0  0  0
   -6.5358   44.3147   55.0895 C   0  0  2  0  0  0  0  0  0  0  0  0
   -7.2357   44.9798   56.2771 C   0  0  0  0  0  0  0  0  0  0  0  0
   -6.9934   44.6538   57.4261 O   0  0  0  0  0  0  0  0  0  0  0  0
   -7.0242   42.8647   54.9897 C   0  0  0  0  0  0  0  0  0  0  0  0
   -8.5213   42.9230   54.7365 C   0  0  0  0  0  0  0  0  0  0  0  0
   -9.1565   41.5754   54.5472 C   0  0  0  0  0  0  0  0  0  0  0  0
  -10.5714   41.7353   54.0055 C   0  0  0  0  0  0  0  0  0  0  0  0
  -11.5233   42.3426   55.0130 C   0  0  0  0  0  0  0  0  0  0  0  0
   -8.2486   45.8454   55.9408 N   0  0  0  0  0  0  0  0  0  0  0  0
   -9.1275   46.5200   56.9158 C   0  0  1  0  0  0  0  0  0  0  0  0
   -8.8274   48.0271   56.9980 C   0  0  0  0  0  0  0  0  0  0  0  0
   -8.7626   48.6857   55.6308 C   0  0  0  0  0  0  0  0  0  0  0  0
   -7.4892   48.2239   57.7005 C   0  0  0  0  0  0  0  0  0  0  0  0
  -10.5823   46.2337   56.5089 C   0  0  0  0  0  0  0  0  0  0  0  0
  -10.8489   46.0833   55.3114 O   0  0  0  0  0  0  0  0  0  0  0  0
  -11.5087   46.0997   57.5155 N   0  0  0  0  0  0  0  0  0  0  0  0
  -12.9212   45.8165   57.1940 C   0  0  1  0  0  0  0  0  0  0  0  0
  -11.3178   46.2458   58.9502 C   0  0  0  0  0  0  0  0  0  0  0  0
  -12.6852   46.0018   59.5622 C   0  0  0  0  0  0  0  0  0  0  0  0
  -13.4675   45.2538   58.4956 C   0  0  0  0  0  0  0  0  0  0  0  0
  -13.7287   47.0673   56.7194 C   0  0  0  0  0  0  0  0  0  0  0  0
  -13.5486   47.3881   55.5092 O   0  0  0  0  0  0  0  0  0  0  0  0
  -14.4627   47.6351   57.5828 O   0  0  0  0  0  0  0  0  0  0  0  0
   -4.6594   45.3546   55.5399 H   0  0  0  0  0  0  0  0  0  0  0  0
   -4.6375   43.6439   55.9612 H   0  0  0  0  0  0  0  0  0  0  0  0
   -4.0549   42.0364   54.2796 H   0  0  0  0  0  0  0  0  0  0  0  0
   -2.8118   43.1302   52.1916 H   0  0  0  0  0  0  0  0  0  0  0  0
   -6.8362   44.8557   54.1797 H   0  0  0  0  0  0  0  0  0  0  0  0
   -6.8024   42.3072   55.9113 H   0  0  0  0  0  0  0  0  0  0  0  0
   -6.5239   42.3294   54.1723 H   0  0  0  0  0  0  0  0  0  0  0  0
   -8.7047   43.5341   53.8467 H   0  0  0  0  0  0  0  0  0  0  0  0
   -9.0129   43.3954   55.5918 H   0  0  0  0  0  0  0  0  0  0  0  0
   -9.1697   41.0544   55.5099 H   0  0  0  0  0  0  0  0  0  0  0  0
   -8.5604   41.0082   53.8299 H   0  0  0  0  0  0  0  0  0  0  0  0
  -10.9440   40.7484   53.7255 H   0  0  0  0  0  0  0  0  0  0  0  0
  -10.5613   42.3738   53.1135 H   0  0  0  0  0  0  0  0  0  0  0  0
  -12.5221   42.4136   54.5736 H   0  0  0  0  0  0  0  0  0  0  0  0
  -11.2017   43.3481   55.2969 H   0  0  0  0  0  0  0  0  0  0  0  0
  -11.5723   41.7186   55.9094 H   0  0  0  0  0  0  0  0  0  0  0  0
   -8.5049   45.9781   54.9716 H   0  0  0  0  0  0  0  0  0  0  0  0
   -8.9385   46.0977   57.9049 H   0  0  0  0  0  0  0  0  0  0  0  0
   -9.6068   48.5386   57.5765 H   0  0  0  0  0  0  0  0  0  0  0  0
   -8.5482   49.7547   55.7336 H   0  0  0  0  0  0  0  0  0  0  0  0
   -9.7166   48.5662   55.1138 H   0  0  0  0  0  0  0  0  0  0  0  0
   -7.9681   48.2346   55.0268 H   0  0  0  0  0  0  0  0  0  0  0  0
   -7.5216   47.7625   58.6909 H   0  0  0  0  0  0  0  0  0  0  0  0
   -7.2573   49.2864   57.8151 H   0  0  0  0  0  0  0  0  0  0  0  0
   -6.6818   47.7557   57.1256 H   0  0  0  0  0  0  0  0  0  0  0  0
  -12.9793   45.0572   56.3995 H   0  0  0  0  0  0  0  0  0  0  0  0
  -10.9444   47.2444   59.2022 H   0  0  0  0  0  0  0  0  0  0  0  0
  -10.5978   45.5017   59.3050 H   0  0  0  0  0  0  0  0  0  0  0  0
  -13.1760   46.9576   59.7769 H   0  0  0  0  0  0  0  0  0  0  0  0
  -12.6211   45.4201   60.4813 H   0  0  0  0  0  0  0  0  0  0  0  0
  -13.2632   44.1796   58.5729 H   0  0  0  0  0  0  0  0  0  0  0  0
  -14.5422   45.4149   58.6087 H   0  0  0  0  0  0  0  0  0  0  0  0
  1  2  1  0  0  0  0
  1  6  1  0  0  0  0
  1 29  1  0  0  0  0
  1 30  1  0  0  0  0
  2  3  2  0  0  0  0
  2  4  1  0  0  0  0
  4  5  1  0  0  0  0
  4 31  1  0  0  0  0
  5 32  1  0  0  0  0
  6  7  1  0  0  0  0
  6  9  1  0  0  0  0
  6 33  1  6  0  0  0
  7  8  2  0  0  0  0
  7 14  1  0  0  0  0
  9 10  1  0  0  0  0
  9 34  1  0  0  0  0
  9 35  1  0  0  0  0
 10 11  1  0  0  0  0
 10 36  1  0  0  0  0
 10 37  1  0  0  0  0
 11 12  1  0  0  0  0
 11 38  1  0  0  0  0
 11 39  1  0  0  0  0
 12 13  1  0  0  0  0
 12 40  1  0  0  0  0
 12 41  1  0  0  0  0
 13 42  1  0  0  0  0
 13 43  1  0  0  0  0
 13 44  1  0  0  0  0
 14 15  1  0  0  0  0
 14 45  1  0  0  0  0
 15 16  1  0  0  0  0
 15 19  1  0  0  0  0
 15 46  1  1  0  0  0
 16 17  1  0  0  0  0
 16 18  1  0  0  0  0
 16 47  1  0  0  0  0
 17 48  1  0  0  0  0
 17 49  1  0  0  0  0
 17 50  1  0  0  0  0
 18 51  1  0  0  0  0
 18 52  1  0  0  0  0
 18 53  1  0  0  0  0
 19 20  2  0  0  0  0
 19 21  1  0  0  0  0
 21 22  1  0  0  0  0
 21 23  1  0  0  0  0
 22 25  1  0  0  0  0
 22 26  1  0  0  0  0
 22 54  1  6  0  0  0
 23 24  1  0  0  0  0
 23 55  1  0  0  0  0
 23 56  1  0  0  0  0
 24 25  1  0  0  0  0
 24 57  1  0  0  0  0
 24 58  1  0  0  0  0
 25 59  1  0  0  0  0
 25 60  1  0  0  0  0
 26 27  2  0  0  0  0
 26 28  1  0  0  0  0
M  END
$$$$
