BBA
 OpenBabel04041917183D

 54 56  0  0  0  0  0  0  0  0999 V2000
   43.6101   22.6069   51.1305 C   0  0  0  0  0  0  0  0  0  0  0  0
   44.1393   21.4873   51.9714 C   0  0  0  0  0  0  0  0  0  0  0  0
   44.9517   21.7225   53.1044 C   0  0  0  0  0  0  0  0  0  0  0  0
   45.4302   20.6516   53.8961 C   0  0  0  0  0  0  0  0  0  0  0  0
   43.8616   20.1464   51.6168 C   0  0  0  0  0  0  0  0  0  0  0  0
   44.3421   19.0710   52.4130 C   0  0  0  0  0  0  0  0  0  0  0  0
   45.1411   19.3095   53.5614 C   0  0  0  0  0  0  0  0  0  0  0  0
   45.6648   18.1907   54.4135 C   0  0  0  0  0  0  0  0  0  0  0  0
   45.1456   16.9575   54.3035 N   0  0  0  0  0  0  0  0  0  0  0  0
   46.6394   18.4082   55.2941 N   0  0  0  0  0  0  0  0  0  0  0  0
   42.0981   26.2269   54.3294 C   0  0  0  0  0  0  0  0  0  0  0  0
   40.8828   25.7351   55.0468 C   0  0  0  0  0  0  0  0  0  0  0  0
   40.8780   25.6104   56.4538 C   0  0  0  0  0  0  0  0  0  0  0  0
   39.7156   25.1485   57.1412 C   0  0  0  0  0  0  0  0  0  0  0  0
   39.7016   25.4095   54.3441 C   0  0  0  0  0  0  0  0  0  0  0  0
   38.5449   24.9473   55.0267 C   0  0  0  0  0  0  0  0  0  0  0  0
   38.5310   24.8097   56.4357 C   0  0  0  0  0  0  0  0  0  0  0  0
   37.2926   24.3282   57.1446 C   0  0  0  0  0  0  0  0  0  0  0  0
   36.5201   23.3814   56.5778 N   0  0  0  0  0  0  0  0  0  0  0  0
   36.9402   24.8281   58.3246 N   0  0  0  0  0  0  0  0  0  0  0  0
   43.0600   23.7956   51.5086 C   0  0  0  0  0  0  0  0  0  0  0  0
   42.6552   24.7758   50.4284 C   0  0  0  0  0  0  0  0  0  0  0  0
   43.7113   25.8796   50.2720 C   0  0  0  0  0  0  0  0  0  0  0  0
   43.5976   26.9507   51.3781 C   0  0  0  0  0  0  0  0  0  0  0  0
   43.9906   26.3991   52.7576 C   0  0  0  0  0  0  0  0  0  0  0  0
   42.8452   25.6207   53.3670 C   0  0  0  0  0  0  0  0  0  0  0  0
   42.6863   24.1656   52.9316 C   0  0  0  0  0  0  0  0  0  0  0  0
   42.3151   23.3288   53.7240 O   0  0  0  0  0  0  0  0  0  0  0  0
   43.6787   22.4512   50.0416 H   0  0  0  0  0  0  0  0  0  0  0  0
   45.2147   22.7449   53.3891 H   0  0  0  0  0  0  0  0  0  0  0  0
   46.0199   20.8807   54.7874 H   0  0  0  0  0  0  0  0  0  0  0  0
   43.2608   19.9289   50.7270 H   0  0  0  0  0  0  0  0  0  0  0  0
   44.0846   18.0489   52.1263 H   0  0  0  0  0  0  0  0  0  0  0  0
   45.4721   16.1919   54.8667 H   0  0  0  0  0  0  0  0  0  0  0  0
   47.0630   19.3322   55.3977 H   0  0  0  0  0  0  0  0  0  0  0  0
   47.0113   17.6745   55.8853 H   0  0  0  0  0  0  0  0  0  0  0  0
   42.4322   27.2367   54.6121 H   0  0  0  0  0  0  0  0  0  0  0  0
   41.7804   25.8575   57.0241 H   0  0  0  0  0  0  0  0  0  0  0  0
   39.7488   25.0483   58.2300 H   0  0  0  0  0  0  0  0  0  0  0  0
   39.6720   25.5049   53.2552 H   0  0  0  0  0  0  0  0  0  0  0  0
   37.6494   24.7035   54.4474 H   0  0  0  0  0  0  0  0  0  0  0  0
   35.6832   23.0429   57.0229 H   0  0  0  0  0  0  0  0  0  0  0  0
   37.4985   25.5582   58.7760 H   0  0  0  0  0  0  0  0  0  0  0  0
   36.1003   24.5299   58.8109 H   0  0  0  0  0  0  0  0  0  0  0  0
   41.6791   25.2159   50.6737 H   0  0  0  0  0  0  0  0  0  0  0  0
   42.5392   24.2315   49.4736 H   0  0  0  0  0  0  0  0  0  0  0  0
   43.5930   26.3575   49.2867 H   0  0  0  0  0  0  0  0  0  0  0  0
   44.7164   25.4306   50.3078 H   0  0  0  0  0  0  0  0  0  0  0  0
   42.5609   27.3217   51.4135 H   0  0  0  0  0  0  0  0  0  0  0  0
   44.2495   27.8025   51.1284 H   0  0  0  0  0  0  0  0  0  0  0  0
   44.2566   27.2327   53.4327 H   0  0  0  0  0  0  0  0  0  0  0  0
   44.8746   25.7531   52.6735 H   0  0  0  0  0  0  0  0  0  0  0  0
   44.3972   16.7561   53.6480 H   0  0  0  0  0  0  0  0  0  0  0  0
   36.7660   22.9700   55.6820 H   0  0  0  0  0  0  0  0  0  0  0  0
  1  2  1  0  0  0  0
  1 21  2  0  0  0  0
  1 29  1  0  0  0  0
  2  3  2  0  0  0  0
  2  5  1  0  0  0  0
  3  4  1  0  0  0  0
  3 30  1  0  0  0  0
  4  7  2  0  0  0  0
  4 31  1  0  0  0  0
  5  6  2  0  0  0  0
  5 32  1  0  0  0  0
  6  7  1  0  0  0  0
  6 33  1  0  0  0  0
  7  8  1  0  0  0  0
  8  9  2  0  0  0  0
  8 10  1  0  0  0  0
  9 34  1  0  0  0  0
  9 53  1  0  0  0  0
 10 35  1  0  0  0  0
 10 36  1  0  0  0  0
 11 12  1  0  0  0  0
 11 26  2  0  0  0  0
 11 37  1  0  0  0  0
 12 13  2  0  0  0  0
 12 15  1  0  0  0  0
 13 14  1  0  0  0  0
 13 38  1  0  0  0  0
 14 17  2  0  0  0  0
 14 39  1  0  0  0  0
 15 16  2  0  0  0  0
 15 40  1  0  0  0  0
 16 17  1  0  0  0  0
 16 41  1  0  0  0  0
 17 18  1  0  0  0  0
 18 19  2  0  0  0  0
 18 20  1  0  0  0  0
 19 42  1  0  0  0  0
 19 54  1  0  0  0  0
 20 43  1  0  0  0  0
 20 44  1  0  0  0  0
 21 22  1  0  0  0  0
 21 27  1  0  0  0  0
 22 23  1  0  0  0  0
 22 45  1  0  0  0  0
 22 46  1  0  0  0  0
 23 24  1  0  0  0  0
 23 47  1  0  0  0  0
 23 48  1  0  0  0  0
 24 25  1  0  0  0  0
 24 49  1  0  0  0  0
 24 50  1  0  0  0  0
 25 26  1  0  0  0  0
 25 51  1  0  0  0  0
 25 52  1  0  0  0  0
 26 27  1  0  0  0  0
 27 28  2  0  0  0  0
M  END
$$$$
