BE4
 OpenBabel04041917263D

 88 93  0  0  1  0  0  0  0  0999 V2000
   16.5874   21.8843    8.8063 C   0  0  0  0  0  0  0  0  0  0  0  0
   17.9881   21.6578    8.5672 C   0  0  0  0  0  0  0  0  0  0  0  0
   18.6227   20.4301    8.9153 C   0  0  0  0  0  0  0  0  0  0  0  0
   17.8691   19.4023    9.5227 C   0  0  0  0  0  0  0  0  0  0  0  0
   16.4813   19.5972    9.7848 C   0  0  0  0  0  0  0  0  0  0  0  0
   15.8429   20.8364    9.4328 C   0  0  0  0  0  0  0  0  0  0  0  0
    9.8484   23.7902    2.2541 C   0  0  0  0  0  0  0  0  0  0  0  0
    8.7703   22.9491    2.6448 C   0  0  0  0  0  0  0  0  0  0  0  0
    7.4167   23.4463    2.6050 C   0  0  0  0  0  0  0  0  0  0  0  0
    7.1575   24.7784    2.1651 C   0  0  0  0  0  0  0  0  0  0  0  0
    8.2310   25.6152    1.7680 C   0  0  0  0  0  0  0  0  0  0  0  0
    9.5635   25.1183    1.8089 C   0  0  0  0  0  0  0  0  0  0  0  0
   11.3174   23.3680    2.2915 C   0  0  0  0  0  0  0  0  0  0  0  0
   11.8266   23.0458    3.6032 O   0  0  0  0  0  0  0  0  0  0  0  0
   11.8783   24.1061    4.5777 C   0  0  2  0  0  0  0  0  0  0  0  0
   12.9447   23.8720    5.6822 C   0  0  1  0  0  0  0  0  0  0  0  0
   14.2830   23.5975    5.0390 C   0  0  2  0  0  0  0  0  0  0  0  0
   15.2310   22.8664    6.0526 C   0  0  2  0  0  0  0  0  0  0  0  0
   15.1131   21.3357    5.8400 C   0  0  0  0  0  0  0  0  0  0  0  0
   14.1210   20.7189    6.0474 O   0  0  0  0  0  0  0  0  0  0  0  0
   16.2931   20.7255    5.4453 N   0  0  0  0  0  0  0  0  0  0  0  0
   14.9179   23.1980    7.4267 O   0  0  0  0  0  0  0  0  0  0  0  0
   16.0120   23.2426    8.3632 C   0  0  0  0  0  0  0  0  0  0  0  0
   14.8272   24.8657    4.5652 O   0  0  0  0  0  0  0  0  0  0  0  0
   13.1025   25.0342    6.5529 O   0  0  0  0  0  0  0  0  0  0  0  0
   10.6297   24.1946    5.4669 C   0  0  0  0  0  0  0  0  0  0  0  0
   10.2825   23.3018    6.1658 O   0  0  0  0  0  0  0  0  0  0  0  0
    9.9702   25.4168    5.3834 N   0  0  0  0  0  0  0  0  0  0  0  0
    8.7992   25.6645    6.2043 C   0  0  1  0  0  0  0  0  0  0  0  0
    9.0970   26.4377    7.4914 C   0  0  0  0  0  0  0  0  0  0  0  0
    7.9953   27.2737    7.8125 C   0  0  0  0  0  0  0  0  0  0  0  0
   10.2508   26.4028    8.3207 C   0  0  0  0  0  0  0  0  0  0  0  0
   10.2882   27.2267    9.4694 C   0  0  0  0  0  0  0  0  0  0  0  0
    9.1756   28.0629    9.7932 C   0  0  0  0  0  0  0  0  0  0  0  0
    7.7340   26.5971    5.5457 C   0  0  2  0  0  0  0  0  0  0  0  0
    8.4322   27.6457    4.8369 O   0  0  0  0  0  0  0  0  0  0  0  0
    8.0163   28.0906    8.9711 C   0  0  0  0  0  0  0  0  0  0  0  0
    6.9076   27.1275    6.7558 C   0  0  0  0  0  0  0  0  0  0  0  0
   16.3877   19.2867    5.2138 C   0  0  1  0  0  0  0  0  0  0  0  0
   16.3090   18.8836    3.7283 C   0  0  0  0  0  0  0  0  0  0  0  0
   17.2337   17.8386    3.4530 C   0  0  0  0  0  0  0  0  0  0  0  0
   15.4805   19.3968    2.7030 C   0  0  0  0  0  0  0  0  0  0  0  0
   15.5988   18.8478    1.3827 C   0  0  0  0  0  0  0  0  0  0  0  0
   16.5283   17.8008    1.1154 C   0  0  0  0  0  0  0  0  0  0  0  0
   17.7998   18.7366    5.6042 C   0  0  2  0  0  0  0  0  0  0  0  0
   18.7788   19.7698    5.3234 O   0  0  0  0  0  0  0  0  0  0  0  0
   17.3299   17.2849    2.1530 C   0  0  0  0  0  0  0  0  0  0  0  0
   17.9912   17.4779    4.7208 C   0  0  0  0  0  0  0  0  0  0  0  0
    5.8933   25.2668    2.1243 F   0  0  0  0  0  0  0  0  0  0  0  0
   18.4865   18.2349    9.8423 F   0  0  0  0  0  0  0  0  0  0  0  0
   14.5281   20.9944    9.6964 F   0  0  0  0  0  0  0  0  0  0  0  0
    9.0278   21.6820    3.0568 F   0  0  0  0  0  0  0  0  0  0  0  0
   18.5917   22.4550    8.0878 H   0  0  0  0  0  0  0  0  0  0  0  0
   19.6915   20.3078    8.6999 H   0  0  0  0  0  0  0  0  0  0  0  0
   15.8980   18.7914   10.2584 H   0  0  0  0  0  0  0  0  0  0  0  0
    6.5893   22.7864    2.9194 H   0  0  0  0  0  0  0  0  0  0  0  0
    8.0819   26.6461    1.4258 H   0  0  0  0  0  0  0  0  0  0  0  0
   10.4021   25.7755    1.4989 H   0  0  0  0  0  0  0  0  0  0  0  0
   11.9506   24.1708    1.8603 H   0  0  0  0  0  0  0  0  0  0  0  0
   11.4509   22.4995    1.6131 H   0  0  0  0  0  0  0  0  0  0  0  0
   12.0864   25.0611    4.0917 H   0  0  0  0  0  0  0  0  0  0  0  0
   12.6639   22.9944    6.2824 H   0  0  0  0  0  0  0  0  0  0  0  0
   14.1240   22.9927    4.1348 H   0  0  0  0  0  0  0  0  0  0  0  0
   16.2404   23.1959    5.8127 H   0  0  0  0  0  0  0  0  0  0  0  0
   17.1409   21.2533    5.2789 H   0  0  0  0  0  0  0  0  0  0  0  0
   16.8001   23.8735    7.9072 H   0  0  0  0  0  0  0  0  0  0  0  0
   15.6727   23.8101    9.2542 H   0  0  0  0  0  0  0  0  0  0  0  0
   14.9363   25.4536    5.3298 H   0  0  0  0  0  0  0  0  0  0  0  0
   13.7748   24.8135    7.2256 H   0  0  0  0  0  0  0  0  0  0  0  0
   10.3330   26.1746    4.8297 H   0  0  0  0  0  0  0  0  0  0  0  0
    8.3133   24.6997    6.4142 H   0  0  0  0  0  0  0  0  0  0  0  0
   11.0992   25.7584    8.0471 H   0  0  0  0  0  0  0  0  0  0  0  0
   11.1750   27.2215   10.1302 H   0  0  0  0  0  0  0  0  0  0  0  0
    9.2151   28.6934   10.6942 H   0  0  0  0  0  0  0  0  0  0  0  0
    7.0853   26.0793    4.8252 H   0  0  0  0  0  0  0  0  0  0  0  0
    7.7891   28.2494    4.4383 H   0  0  0  0  0  0  0  0  0  0  0  0
    7.1670   28.7362    9.2202 H   0  0  0  0  0  0  0  0  0  0  0  0
    6.3975   28.0757    6.5352 H   0  0  0  0  0  0  0  0  0  0  0  0
    6.1568   26.3795    7.0659 H   0  0  0  0  0  0  0  0  0  0  0  0
   15.6291   18.7644    5.8170 H   0  0  0  0  0  0  0  0  0  0  0  0
   14.7686   20.1996    2.9089 H   0  0  0  0  0  0  0  0  0  0  0  0
   14.9651   19.2307    0.5575 H   0  0  0  0  0  0  0  0  0  0  0  0
   16.6086   17.3880    0.0988 H   0  0  0  0  0  0  0  0  0  0  0  0
   17.8818   18.4815    6.6721 H   0  0  0  0  0  0  0  0  0  0  0  0
   19.6654   19.4441    5.5424 H   0  0  0  0  0  0  0  0  0  0  0  0
   18.0671   16.4773    1.9371 H   0  0  0  0  0  0  0  0  0  0  0  0
   19.0527   17.2810    4.5338 H   0  0  0  0  0  0  0  0  0  0  0  0
   17.5337   16.6075    5.2162 H   0  0  0  0  0  0  0  0  0  0  0  0
  1  2  2  0  0  0  0
  1  6  1  0  0  0  0
  1 23  1  0  0  0  0
  2  3  1  0  0  0  0
  2 53  1  0  0  0  0
  3  4  2  0  0  0  0
  3 54  1  0  0  0  0
  4  5  1  0  0  0  0
  4 50  1  0  0  0  0
  5  6  2  0  0  0  0
  5 55  1  0  0  0  0
  6 51  1  0  0  0  0
  7  8  2  0  0  0  0
  7 12  1  0  0  0  0
  7 13  1  0  0  0  0
  8  9  1  0  0  0  0
  8 52  1  0  0  0  0
  9 10  2  0  0  0  0
  9 56  1  0  0  0  0
 10 11  1  0  0  0  0
 10 49  1  0  0  0  0
 11 12  2  0  0  0  0
 11 57  1  0  0  0  0
 12 58  1  0  0  0  0
 13 14  1  0  0  0  0
 13 59  1  0  0  0  0
 13 60  1  0  0  0  0
 14 15  1  0  0  0  0
 15 16  1  0  0  0  0
 15 26  1  0  0  0  0
 15 61  1  6  0  0  0
 16 17  1  0  0  0  0
 16 25  1  0  0  0  0
 16 62  1  1  0  0  0
 17 18  1  0  0  0  0
 17 24  1  0  0  0  0
 17 63  1  6  0  0  0
 18 19  1  0  0  0  0
 18 22  1  0  0  0  0
 18 64  1  6  0  0  0
 19 20  2  0  0  0  0
 19 21  1  0  0  0  0
 21 39  1  0  0  0  0
 21 65  1  0  0  0  0
 22 23  1  0  0  0  0
 23 66  1  0  0  0  0
 23 67  1  0  0  0  0
 24 68  1  0  0  0  0
 25 69  1  0  0  0  0
 26 27  2  0  0  0  0
 26 28  1  0  0  0  0
 28 29  1  0  0  0  0
 28 70  1  0  0  0  0
 29 30  1  0  0  0  0
 29 35  1  0  0  0  0
 29 71  1  1  0  0  0
 30 31  2  0  0  0  0
 30 32  1  0  0  0  0
 31 37  1  0  0  0  0
 31 38  1  0  0  0  0
 32 33  2  0  0  0  0
 32 72  1  0  0  0  0
 33 34  1  0  0  0  0
 33 73  1  0  0  0  0
 34 37  2  0  0  0  0
 34 74  1  0  0  0  0
 35 36  1  0  0  0  0
 35 38  1  0  0  0  0
 35 75  1  6  0  0  0
 36 76  1  0  0  0  0
 37 77  1  0  0  0  0
 38 78  1  0  0  0  0
 38 79  1  0  0  0  0
 39 40  1  0  0  0  0
 39 45  1  0  0  0  0
 39 80  1  1  0  0  0
 40 41  2  0  0  0  0
 40 42  1  0  0  0  0
 41 47  1  0  0  0  0
 41 48  1  0  0  0  0
 42 43  2  0  0  0  0
 42 81  1  0  0  0  0
 43 44  1  0  0  0  0
 43 82  1  0  0  0  0
 44 47  2  0  0  0  0
 44 83  1  0  0  0  0
 45 46  1  0  0  0  0
 45 48  1  0  0  0  0
 45 84  1  1  0  0  0
 46 85  1  0  0  0  0
 47 86  1  0  0  0  0
 48 87  1  0  0  0  0
 48 88  1  0  0  0  0
M  END
$$$$
