BEB
 OpenBabel04041914253D

 88 93  0  0  1  0  0  0  0  0999 V2000
    9.8521   24.2278    2.2847 C   0  0  0  0  0  0  0  0  0  0  0  0
    9.2221   25.3918    1.8188 C   0  0  0  0  0  0  0  0  0  0  0  0
    7.8376   25.5453    1.9163 C   0  0  0  0  0  0  0  0  0  0  0  0
    7.0616   24.5318    2.4719 C   0  0  0  0  0  0  0  0  0  0  0  0
    7.6699   23.3598    2.9182 C   0  0  0  0  0  0  0  0  0  0  0  0
    9.0571   23.2036    2.8188 C   0  0  0  0  0  0  0  0  0  0  0  0
   16.6066   22.1489    8.8090 C   0  0  0  0  0  0  0  0  0  0  0  0
   15.9114   21.1886    9.5581 C   0  0  0  0  0  0  0  0  0  0  0  0
   16.5735   20.0657   10.0677 C   0  0  0  0  0  0  0  0  0  0  0  0
   17.9375   19.8926    9.8419 C   0  0  0  0  0  0  0  0  0  0  0  0
   18.6441   20.8491    9.1171 C   0  0  0  0  0  0  0  0  0  0  0  0
   17.9845   21.9721    8.6093 C   0  0  0  0  0  0  0  0  0  0  0  0
   15.9070   23.3705    8.2556 C   0  0  0  0  0  0  0  0  0  0  0  0
   14.8117   23.0916    7.3793 O   0  0  0  0  0  0  0  0  0  0  0  0
   15.1918   22.6956    6.0545 C   0  0  2  0  0  0  0  0  0  0  0  0
   14.0655   23.0508    5.0390 C   0  0  1  0  0  0  0  0  0  0  0  0
   13.5395   24.5095    5.1047 C   0  0  2  0  0  0  0  0  0  0  0  0
   12.1828   24.7283    4.3188 C   0  0  2  0  0  0  0  0  0  0  0  0
   11.0125   24.7365    5.3331 C   0  0  0  0  0  0  0  0  0  0  0  0
   10.7772   23.7671    6.0672 O   0  0  0  0  0  0  0  0  0  0  0  0
   10.2312   25.8724    5.3268 N   0  0  0  0  0  0  0  0  0  0  0  0
   12.0434   23.7006    3.3296 O   0  0  0  0  0  0  0  0  0  0  0  0
   11.3473   24.0812    2.1435 C   0  0  0  0  0  0  0  0  0  0  0  0
   14.5397   25.3742    4.5043 O   0  0  0  0  0  0  0  0  0  0  0  0
   14.5809   22.8500    3.6951 O   0  0  0  0  0  0  0  0  0  0  0  0
   15.3404   21.1539    5.9835 C   0  0  0  0  0  0  0  0  0  0  0  0
   14.4022   20.3943    6.2321 O   0  0  0  0  0  0  0  0  0  0  0  0
   16.5853   20.6835    5.6175 N   0  0  0  0  0  0  0  0  0  0  0  0
   16.8125   19.2779    5.3382 C   0  0  1  0  0  0  0  0  0  0  0  0
   16.7339   18.9321    3.8704 C   0  0  0  0  0  0  0  0  0  0  0  0
   17.6707   17.9411    3.5363 C   0  0  0  0  0  0  0  0  0  0  0  0
   15.8693   19.4297    2.9042 C   0  0  0  0  0  0  0  0  0  0  0  0
   15.9540   18.9284    1.6006 C   0  0  0  0  0  0  0  0  0  0  0  0
   16.8787   17.9280    1.2807 C   0  0  0  0  0  0  0  0  0  0  0  0
   18.2543   18.7854    5.6611 C   0  0  2  0  0  0  0  0  0  0  0  0
   19.2230   19.8213    5.3938 O   0  0  0  0  0  0  0  0  0  0  0  0
   17.7440   17.4195    2.2511 C   0  0  0  0  0  0  0  0  0  0  0  0
   18.4945   17.5680    4.7350 C   0  0  0  0  0  0  0  0  0  0  0  0
    9.0593   26.0331    6.1852 C   0  0  1  0  0  0  0  0  0  0  0  0
    9.3331   26.7559    7.4859 C   0  0  0  0  0  0  0  0  0  0  0  0
    8.2361   27.5554    7.8551 C   0  0  0  0  0  0  0  0  0  0  0  0
   10.4493   26.6858    8.3031 C   0  0  0  0  0  0  0  0  0  0  0  0
   10.4624   27.4243    9.4898 C   0  0  0  0  0  0  0  0  0  0  0  0
    9.3607   28.2110    9.8603 C   0  0  0  0  0  0  0  0  0  0  0  0
    7.9566   26.9690    5.5952 C   0  0  2  0  0  0  0  0  0  0  0  0
    8.5554   28.0716    4.8793 O   0  0  0  0  0  0  0  0  0  0  0  0
    8.2310   28.2731    9.0440 C   0  0  0  0  0  0  0  0  0  0  0  0
    7.1548   27.4795    6.8177 C   0  0  0  0  0  0  0  0  0  0  0  0
    9.8077   26.1926    1.3734 H   0  0  0  0  0  0  0  0  0  0  0  0
    7.3679   26.4586    1.5609 H   0  0  0  0  0  0  0  0  0  0  0  0
    5.9847   24.6547    2.5571 H   0  0  0  0  0  0  0  0  0  0  0  0
    7.0638   22.5656    3.3480 H   0  0  0  0  0  0  0  0  0  0  0  0
    9.5128   22.2786    3.1692 H   0  0  0  0  0  0  0  0  0  0  0  0
   14.8446   21.3052    9.7411 H   0  0  0  0  0  0  0  0  0  0  0  0
   16.0206   19.3218   10.6363 H   0  0  0  0  0  0  0  0  0  0  0  0
   18.4484   19.0155   10.2306 H   0  0  0  0  0  0  0  0  0  0  0  0
   19.7089   20.7212    8.9418 H   0  0  0  0  0  0  0  0  0  0  0  0
   18.5575   22.7075    8.0501 H   0  0  0  0  0  0  0  0  0  0  0  0
   16.6148   24.0461    7.7605 H   0  0  0  0  0  0  0  0  0  0  0  0
   15.5003   23.9336    9.1050 H   0  0  0  0  0  0  0  0  0  0  0  0
   16.1259   23.1833    5.7492 H   0  0  0  0  0  0  0  0  0  0  0  0
   13.2202   22.3691    5.1909 H   0  0  0  0  0  0  0  0  0  0  0  0
   13.4322   24.8460    6.1400 H   0  0  0  0  0  0  0  0  0  0  0  0
   12.2423   25.7084    3.8295 H   0  0  0  0  0  0  0  0  0  0  0  0
   10.4845   26.6863    4.7819 H   0  0  0  0  0  0  0  0  0  0  0  0
   11.8043   24.9904    1.7378 H   0  0  0  0  0  0  0  0  0  0  0  0
   11.5342   23.2909    1.4055 H   0  0  0  0  0  0  0  0  0  0  0  0
   14.7821   24.9495    3.6562 H   0  0  0  0  0  0  0  0  0  0  0  0
   13.7941   22.9144    3.1156 H   0  0  0  0  0  0  0  0  0  0  0  0
   17.3262   21.3203    5.3559 H   0  0  0  0  0  0  0  0  0  0  0  0
   16.0893   18.6592    5.8821 H   0  0  0  0  0  0  0  0  0  0  0  0
   15.1455   20.2004    3.1513 H   0  0  0  0  0  0  0  0  0  0  0  0
   15.2899   19.3221    0.8326 H   0  0  0  0  0  0  0  0  0  0  0  0
   16.9232   17.5485    0.2625 H   0  0  0  0  0  0  0  0  0  0  0  0
   18.3660   18.5152    6.7159 H   0  0  0  0  0  0  0  0  0  0  0  0
   20.1023   19.4412    5.5591 H   0  0  0  0  0  0  0  0  0  0  0  0
   18.4562   16.6456    1.9937 H   0  0  0  0  0  0  0  0  0  0  0  0
   19.5483   17.4362    4.4742 H   0  0  0  0  0  0  0  0  0  0  0  0
   18.0938   16.6489    5.1778 H   0  0  0  0  0  0  0  0  0  0  0  0
    8.6230   25.0521    6.4085 H   0  0  0  0  0  0  0  0  0  0  0  0
   11.3009   26.0705    8.0313 H   0  0  0  0  0  0  0  0  0  0  0  0
   11.3363   27.3805   10.1358 H   0  0  0  0  0  0  0  0  0  0  0  0
    9.3928   28.7747   10.7911 H   0  0  0  0  0  0  0  0  0  0  0  0
    7.3086   26.4519    4.8819 H   0  0  0  0  0  0  0  0  0  0  0  0
    7.8364   28.6744    4.6227 H   0  0  0  0  0  0  0  0  0  0  0  0
    7.3799   28.8803    9.3379 H   0  0  0  0  0  0  0  0  0  0  0  0
    6.6876   28.4546    6.6468 H   0  0  0  0  0  0  0  0  0  0  0  0
    6.4002   26.7482    7.1296 H   0  0  0  0  0  0  0  0  0  0  0  0
  1  2  2  0  0  0  0
  1  6  1  0  0  0  0
  1 23  1  0  0  0  0
  2  3  1  0  0  0  0
  2 49  1  0  0  0  0
  3  4  2  0  0  0  0
  3 50  1  0  0  0  0
  4  5  1  0  0  0  0
  4 51  1  0  0  0  0
  5  6  2  0  0  0  0
  5 52  1  0  0  0  0
  6 53  1  0  0  0  0
  7  8  2  0  0  0  0
  7 12  1  0  0  0  0
  7 13  1  0  0  0  0
  8  9  1  0  0  0  0
  8 54  1  0  0  0  0
  9 10  2  0  0  0  0
  9 55  1  0  0  0  0
 10 11  1  0  0  0  0
 10 56  1  0  0  0  0
 11 12  2  0  0  0  0
 11 57  1  0  0  0  0
 12 58  1  0  0  0  0
 13 14  1  0  0  0  0
 13 59  1  0  0  0  0
 13 60  1  0  0  0  0
 14 15  1  0  0  0  0
 15 16  1  0  0  0  0
 15 26  1  0  0  0  0
 15 61  1  6  0  0  0
 16 17  1  0  0  0  0
 16 25  1  0  0  0  0
 16 62  1  1  0  0  0
 17 18  1  0  0  0  0
 17 24  1  0  0  0  0
 17 63  1  1  0  0  0
 18 19  1  0  0  0  0
 18 22  1  0  0  0  0
 18 64  1  6  0  0  0
 19 20  2  0  0  0  0
 19 21  1  0  0  0  0
 21 39  1  0  0  0  0
 21 65  1  0  0  0  0
 22 23  1  0  0  0  0
 23 66  1  0  0  0  0
 23 67  1  0  0  0  0
 24 68  1  0  0  0  0
 25 69  1  0  0  0  0
 26 27  2  0  0  0  0
 26 28  1  0  0  0  0
 28 29  1  0  0  0  0
 28 70  1  0  0  0  0
 29 30  1  0  0  0  0
 29 35  1  0  0  0  0
 29 71  1  1  0  0  0
 30 31  2  0  0  0  0
 30 32  1  0  0  0  0
 31 37  1  0  0  0  0
 31 38  1  0  0  0  0
 32 33  2  0  0  0  0
 32 72  1  0  0  0  0
 33 34  1  0  0  0  0
 33 73  1  0  0  0  0
 34 37  2  0  0  0  0
 34 74  1  0  0  0  0
 35 36  1  0  0  0  0
 35 38  1  0  0  0  0
 35 75  1  1  0  0  0
 36 76  1  0  0  0  0
 37 77  1  0  0  0  0
 38 78  1  0  0  0  0
 38 79  1  0  0  0  0
 39 40  1  0  0  0  0
 39 45  1  0  0  0  0
 39 80  1  1  0  0  0
 40 41  2  0  0  0  0
 40 42  1  0  0  0  0
 41 47  1  0  0  0  0
 41 48  1  0  0  0  0
 42 43  2  0  0  0  0
 42 81  1  0  0  0  0
 43 44  1  0  0  0  0
 43 82  1  0  0  0  0
 44 47  2  0  0  0  0
 44 83  1  0  0  0  0
 45 46  1  0  0  0  0
 45 48  1  0  0  0  0
 45 84  1  6  0  0  0
 46 85  1  0  0  0  0
 47 86  1  0  0  0  0
 48 87  1  0  0  0  0
 48 88  1  0  0  0  0
M  END
$$$$
