BEG
 OpenBabel04041914153D

 87 92  0  0  1  0  0  0  0  0999 V2000
    9.7397   24.1083    2.2662 C   0  0  0  0  0  0  0  0  0  0  0  0
    9.0402   25.2587    1.8714 C   0  0  0  0  0  0  0  0  0  0  0  0
    7.6521   25.3395    2.0023 C   0  0  0  0  0  0  0  0  0  0  0  0
    6.9354   24.2624    2.5154 C   0  0  0  0  0  0  0  0  0  0  0  0
    7.6109   23.0984    2.8798 C   0  0  0  0  0  0  0  0  0  0  0  0
    9.0044   23.0154    2.7471 C   0  0  0  0  0  0  0  0  0  0  0  0
   16.2955   22.1074    8.7611 C   0  0  0  0  0  0  0  0  0  0  0  0
   15.5661   21.1288    9.4514 C   0  0  0  0  0  0  0  0  0  0  0  0
   16.1862   19.9624    9.9114 C   0  0  0  0  0  0  0  0  0  0  0  0
   17.5492   19.7638    9.7029 C   0  0  0  0  0  0  0  0  0  0  0  0
   18.2944   20.7434    9.0476 C   0  0  0  0  0  0  0  0  0  0  0  0
   17.6733   21.9089    8.5849 C   0  0  0  0  0  0  0  0  0  0  0  0
   15.6039   23.3337    8.2086 C   0  0  0  0  0  0  0  0  0  0  0  0
   14.5557   23.0273    7.2885 O   0  0  0  0  0  0  0  0  0  0  0  0
   11.2457   24.0889    2.1364 C   0  0  0  0  0  0  0  0  0  0  0  0
   11.9323   23.6071    3.2850 O   0  0  0  0  0  0  0  0  0  0  0  0
   15.0287   22.6533    5.9948 C   0  0  2  0  0  0  0  0  0  0  0  0
   13.9699   22.9917    4.9376 C   0  0  0  0  0  0  0  0  0  0  0  0
   13.4714   24.4239    5.0023 C   0  0  1  0  0  0  0  0  0  0  0  0
   14.4485   25.2354    4.3122 O   0  0  0  0  0  0  0  0  0  0  0  0
   12.0900   24.5910    4.3164 C   0  0  2  0  0  0  0  0  0  0  0  0
   10.9427   24.5037    5.3442 C   0  0  0  0  0  0  0  0  0  0  0  0
   10.7263   23.5082    6.0297 O   0  0  0  0  0  0  0  0  0  0  0  0
   10.1477   25.6299    5.3868 N   0  0  0  0  0  0  0  0  0  0  0  0
   15.1700   21.1397    5.8912 C   0  0  0  0  0  0  0  0  0  0  0  0
   14.2328   20.3689    6.1429 O   0  0  0  0  0  0  0  0  0  0  0  0
   16.3758   20.6781    5.4391 N   0  0  0  0  0  0  0  0  0  0  0  0
   16.5908   19.2592    5.2412 C   0  0  1  0  0  0  0  0  0  0  0  0
   16.5672   18.8540    3.7921 C   0  0  0  0  0  0  0  0  0  0  0  0
   17.5314   17.8677    3.5392 C   0  0  0  0  0  0  0  0  0  0  0  0
   15.7322   19.3003    2.7782 C   0  0  0  0  0  0  0  0  0  0  0  0
   15.8753   18.7535    1.4999 C   0  0  0  0  0  0  0  0  0  0  0  0
   16.8332   17.7583    1.2524 C   0  0  0  0  0  0  0  0  0  0  0  0
   18.0055   18.7970    5.6566 C   0  0  2  0  0  0  0  0  0  0  0  0
   18.9595   19.8527    5.4020 O   0  0  0  0  0  0  0  0  0  0  0  0
   17.6671   17.3029    2.2780 C   0  0  0  0  0  0  0  0  0  0  0  0
   18.3143   17.5584    4.7839 C   0  0  0  0  0  0  0  0  0  0  0  0
    8.9876   25.7525    6.2500 C   0  0  1  0  0  0  0  0  0  0  0  0
    9.2711   26.5149    7.5230 C   0  0  0  0  0  0  0  0  0  0  0  0
    8.2030   27.3612    7.8585 C   0  0  0  0  0  0  0  0  0  0  0  0
   10.3907   26.4409    8.3416 C   0  0  0  0  0  0  0  0  0  0  0  0
   10.4272   27.2213    9.4951 C   0  0  0  0  0  0  0  0  0  0  0  0
    9.3604   28.0655    9.8363 C   0  0  0  0  0  0  0  0  0  0  0  0
    7.8781   26.6566    5.6352 C   0  0  2  0  0  0  0  0  0  0  0  0
    8.4881   27.6858    4.8228 O   0  0  0  0  0  0  0  0  0  0  0  0
    8.2301   28.1332    9.0151 C   0  0  0  0  0  0  0  0  0  0  0  0
    7.1168   27.2811    6.8278 C   0  0  0  0  0  0  0  0  0  0  0  0
    9.5794   26.1121    1.4685 H   0  0  0  0  0  0  0  0  0  0  0  0
    7.1366   26.2511    1.7125 H   0  0  0  0  0  0  0  0  0  0  0  0
    5.8567   24.3302    2.6314 H   0  0  0  0  0  0  0  0  0  0  0  0
    7.0520   22.2545    3.2802 H   0  0  0  0  0  0  0  0  0  0  0  0
    9.5097   22.0979    3.0448 H   0  0  0  0  0  0  0  0  0  0  0  0
   14.4978   21.2627    9.6124 H   0  0  0  0  0  0  0  0  0  0  0  0
   15.5979   19.2043   10.4213 H   0  0  0  0  0  0  0  0  0  0  0  0
   18.0272   18.8504   10.0492 H   0  0  0  0  0  0  0  0  0  0  0  0
   19.3581   20.5935    8.8869 H   0  0  0  0  0  0  0  0  0  0  0  0
   18.2765   22.6549    8.0723 H   0  0  0  0  0  0  0  0  0  0  0  0
   16.3124   24.0211    7.7322 H   0  0  0  0  0  0  0  0  0  0  0  0
   15.1447   23.8905    9.0347 H   0  0  0  0  0  0  0  0  0  0  0  0
   11.6268   25.0910    1.9075 H   0  0  0  0  0  0  0  0  0  0  0  0
   11.5335   23.4546    1.2923 H   0  0  0  0  0  0  0  0  0  0  0  0
   15.9671   23.1746    5.7506 H   0  0  0  0  0  0  0  0  0  0  0  0
   13.1200   22.3190    5.0674 H   0  0  0  0  0  0  0  0  0  0  0  0
   14.4059   22.7878    3.9483 H   0  0  0  0  0  0  0  0  0  0  0  0
   13.4290   24.8037    6.0278 H   0  0  0  0  0  0  0  0  0  0  0  0
   14.5151   24.8879    3.4034 H   0  0  0  0  0  0  0  0  0  0  0  0
   12.0896   25.5924    3.8741 H   0  0  0  0  0  0  0  0  0  0  0  0
   10.3355   26.4293    4.7940 H   0  0  0  0  0  0  0  0  0  0  0  0
   17.1559   21.2969    5.2441 H   0  0  0  0  0  0  0  0  0  0  0  0
   15.8410   18.6789    5.7957 H   0  0  0  0  0  0  0  0  0  0  0  0
   14.9854   20.0645    2.9713 H   0  0  0  0  0  0  0  0  0  0  0  0
   15.2372   19.1007    0.6907 H   0  0  0  0  0  0  0  0  0  0  0  0
   16.9261   17.3439    0.2499 H   0  0  0  0  0  0  0  0  0  0  0  0
   18.0664   18.5629    6.7239 H   0  0  0  0  0  0  0  0  0  0  0  0
   19.8360   19.5051    5.6271 H   0  0  0  0  0  0  0  0  0  0  0  0
   18.4068   16.5346    2.0769 H   0  0  0  0  0  0  0  0  0  0  0  0
   19.3823   17.4537    4.5739 H   0  0  0  0  0  0  0  0  0  0  0  0
   17.9270   16.6420    5.2459 H   0  0  0  0  0  0  0  0  0  0  0  0
    8.5763   24.7656    6.4902 H   0  0  0  0  0  0  0  0  0  0  0  0
   11.2193   25.7927    8.0812 H   0  0  0  0  0  0  0  0  0  0  0  0
   11.3112   27.1821   10.1365 H   0  0  0  0  0  0  0  0  0  0  0  0
    9.4186   28.6655   10.7385 H   0  0  0  0  0  0  0  0  0  0  0  0
    7.2035   26.0958    4.9815 H   0  0  0  0  0  0  0  0  0  0  0  0
    7.7735   28.2600    4.5028 H   0  0  0  0  0  0  0  0  0  0  0  0
    7.4037   28.7836    9.2820 H   0  0  0  0  0  0  0  0  0  0  0  0
    6.7083   28.2686    6.5907 H   0  0  0  0  0  0  0  0  0  0  0  0
    6.3190   26.6177    7.1807 H   0  0  0  0  0  0  0  0  0  0  0  0
  1  2  2  0  0  0  0
  1  6  1  0  0  0  0
  1 15  1  0  0  0  0
  2  3  1  0  0  0  0
  2 48  1  0  0  0  0
  3  4  2  0  0  0  0
  3 49  1  0  0  0  0
  4  5  1  0  0  0  0
  4 50  1  0  0  0  0
  5  6  2  0  0  0  0
  5 51  1  0  0  0  0
  6 52  1  0  0  0  0
  7  8  2  0  0  0  0
  7 12  1  0  0  0  0
  7 13  1  0  0  0  0
  8  9  1  0  0  0  0
  8 53  1  0  0  0  0
  9 10  2  0  0  0  0
  9 54  1  0  0  0  0
 10 11  1  0  0  0  0
 10 55  1  0  0  0  0
 11 12  2  0  0  0  0
 11 56  1  0  0  0  0
 12 57  1  0  0  0  0
 13 14  1  0  0  0  0
 13 58  1  0  0  0  0
 13 59  1  0  0  0  0
 14 17  1  0  0  0  0
 15 16  1  0  0  0  0
 15 60  1  0  0  0  0
 15 61  1  0  0  0  0
 16 21  1  0  0  0  0
 17 18  1  0  0  0  0
 17 25  1  0  0  0  0
 17 62  1  6  0  0  0
 18 19  1  0  0  0  0
 18 63  1  0  0  0  0
 18 64  1  0  0  0  0
 19 20  1  0  0  0  0
 19 21  1  0  0  0  0
 19 65  1  1  0  0  0
 20 66  1  0  0  0  0
 21 22  1  0  0  0  0
 21 67  1  6  0  0  0
 22 23  2  0  0  0  0
 22 24  1  0  0  0  0
 24 38  1  0  0  0  0
 24 68  1  0  0  0  0
 25 26  2  0  0  0  0
 25 27  1  0  0  0  0
 27 28  1  0  0  0  0
 27 69  1  0  0  0  0
 28 29  1  0  0  0  0
 28 34  1  0  0  0  0
 28 70  1  1  0  0  0
 29 30  2  0  0  0  0
 29 31  1  0  0  0  0
 30 36  1  0  0  0  0
 30 37  1  0  0  0  0
 31 32  2  0  0  0  0
 31 71  1  0  0  0  0
 32 33  1  0  0  0  0
 32 72  1  0  0  0  0
 33 36  2  0  0  0  0
 33 73  1  0  0  0  0
 34 35  1  0  0  0  0
 34 37  1  0  0  0  0
 34 74  1  1  0  0  0
 35 75  1  0  0  0  0
 36 76  1  0  0  0  0
 37 77  1  0  0  0  0
 37 78  1  0  0  0  0
 38 39  1  0  0  0  0
 38 44  1  0  0  0  0
 38 79  1  1  0  0  0
 39 40  2  0  0  0  0
 39 41  1  0  0  0  0
 40 46  1  0  0  0  0
 40 47  1  0  0  0  0
 41 42  2  0  0  0  0
 41 80  1  0  0  0  0
 42 43  1  0  0  0  0
 42 81  1  0  0  0  0
 43 46  2  0  0  0  0
 43 82  1  0  0  0  0
 44 45  1  0  0  0  0
 44 47  1  0  0  0  0
 44 83  1  6  0  0  0
 45 84  1  0  0  0  0
 46 85  1  0  0  0  0
 47 86  1  0  0  0  0
 47 87  1  0  0  0  0
M  END
$$$$
