BEH
 OpenBabel04041914153D

 83 87  0  0  1  0  0  0  0  0999 V2000
   13.8665   22.9704    4.9981 C   0  0  1  0  0  0  0  0  0  0  0  0
   14.3874   22.7130    3.6686 O   0  0  0  0  0  0  0  0  0  0  0  0
   14.9821   22.7124    6.0415 C   0  0  1  0  0  0  0  0  0  0  0  0
   14.5527   23.0781    7.3638 O   0  0  0  0  0  0  0  0  0  0  0  0
   15.6394   23.3852    8.2446 C   0  0  0  0  0  0  0  0  0  0  0  0
   16.3239   22.1642    8.8287 C   0  0  0  0  0  0  0  0  0  0  0  0
   15.6066   21.2078    9.5646 C   0  0  0  0  0  0  0  0  0  0  0  0
   16.2351   20.0446   10.0294 C   0  0  0  0  0  0  0  0  0  0  0  0
   17.5994   19.8420    9.7733 C   0  0  0  0  0  0  0  0  0  0  0  0
   18.3437   20.7942    9.0634 C   0  0  0  0  0  0  0  0  0  0  0  0
   17.7058   21.9581    8.6220 C   0  0  0  0  0  0  0  0  0  0  0  0
   15.1755   21.2043    5.9617 C   0  0  0  0  0  0  0  0  0  0  0  0
   14.2585   20.4203    6.2063 O   0  0  0  0  0  0  0  0  0  0  0  0
   16.4168   20.7596    5.5591 N   0  0  0  0  0  0  0  0  0  0  0  0
   16.6391   19.3444    5.3559 C   0  0  1  0  0  0  0  0  0  0  0  0
   16.5744   18.8895    3.9097 C   0  0  0  0  0  0  0  0  0  0  0  0
   15.7263   19.2977    2.8938 C   0  0  0  0  0  0  0  0  0  0  0  0
   15.8439   18.7165    1.6196 C   0  0  0  0  0  0  0  0  0  0  0  0
   16.8011   17.7214    1.3825 C   0  0  0  0  0  0  0  0  0  0  0  0
   17.6480   17.2988    2.4132 C   0  0  0  0  0  0  0  0  0  0  0  0
   17.5354   17.8973    3.6641 C   0  0  0  0  0  0  0  0  0  0  0  0
   18.3546   17.6238    4.8988 C   0  0  0  0  0  0  0  0  0  0  0  0
   18.0664   18.8835    5.7453 C   0  0  1  0  0  0  0  0  0  0  0  0
   19.0139   19.9301    5.4572 O   0  0  0  0  0  0  0  0  0  0  0  0
   13.3447   24.4108    5.0186 C   0  0  1  0  0  0  0  0  0  0  0  0
   14.3426   25.2786    4.4305 O   0  0  0  0  0  0  0  0  0  0  0  0
   12.0010   24.5973    4.2534 C   0  0  1  0  0  0  0  0  0  0  0  0
   11.8245   23.5937    3.2345 O   0  0  0  0  0  0  0  0  0  0  0  0
   11.1339   24.0782    2.0788 C   0  0  0  0  0  0  0  0  0  0  0  0
    9.6267   24.1674    2.2106 C   0  0  0  0  0  0  0  0  0  0  0  0
    8.9565   25.3430    1.8176 C   0  0  0  0  0  0  0  0  0  0  0  0
    7.5668   25.4561    1.9373 C   0  0  0  0  0  0  0  0  0  0  0  0
    6.8258   24.3915    2.4524 C   0  0  0  0  0  0  0  0  0  0  0  0
    7.4699   23.2087    2.8162 C   0  0  0  0  0  0  0  0  0  0  0  0
    8.8617   23.0922    2.6862 C   0  0  0  0  0  0  0  0  0  0  0  0
   10.8874   24.5056    5.2935 C   0  0  0  0  0  0  0  0  0  0  0  0
   10.7553   23.4871    5.9933 O   0  0  0  0  0  0  0  0  0  0  0  0
   10.0577   25.5956    5.4225 N   0  0  0  0  0  0  0  0  0  0  0  0
    8.9302   25.5364    6.3316 C   0  0  0  0  0  0  0  0  0  0  0  0
    8.9475   26.5794    7.4206 C   0  0  0  0  0  0  0  0  0  0  0  0
    7.7921   27.3420    7.6657 C   0  0  0  0  0  0  0  0  0  0  0  0
    7.7620   28.2615    8.7161 C   0  0  0  0  0  0  0  0  0  0  0  0
    8.8802   28.4127    9.5354 C   0  0  0  0  0  0  0  0  0  0  0  0
   10.0263   27.6452    9.3176 C   0  0  0  0  0  0  0  0  0  0  0  0
   10.0574   26.7246    8.2666 C   0  0  0  0  0  0  0  0  0  0  0  0
   13.0262   22.2936    5.1967 H   0  0  0  0  0  0  0  0  0  0  0  0
   13.6233   22.8022    3.0638 H   0  0  0  0  0  0  0  0  0  0  0  0
   15.8895   23.2586    5.7592 H   0  0  0  0  0  0  0  0  0  0  0  0
   15.2366   24.0007    9.0588 H   0  0  0  0  0  0  0  0  0  0  0  0
   16.3543   24.0196    7.7096 H   0  0  0  0  0  0  0  0  0  0  0  0
   14.5444   21.3534    9.7593 H   0  0  0  0  0  0  0  0  0  0  0  0
   15.6585   19.2895   10.5632 H   0  0  0  0  0  0  0  0  0  0  0  0
   18.0748   18.9228   10.1191 H   0  0  0  0  0  0  0  0  0  0  0  0
   19.4014   20.6470    8.8957 H   0  0  0  0  0  0  0  0  0  0  0  0
   18.2928   22.6991    8.0827 H   0  0  0  0  0  0  0  0  0  0  0  0
   17.1568   21.4057    5.3142 H   0  0  0  0  0  0  0  0  0  0  0  0
   15.9150   18.7756    5.9477 H   0  0  0  0  0  0  0  0  0  0  0  0
   14.9867   20.0720    3.0685 H   0  0  0  0  0  0  0  0  0  0  0  0
   15.1944   19.0483    0.8092 H   0  0  0  0  0  0  0  0  0  0  0  0
   16.8911   17.2846    0.3887 H   0  0  0  0  0  0  0  0  0  0  0  0
   18.3967   16.5367    2.2187 H   0  0  0  0  0  0  0  0  0  0  0  0
   19.4194   17.5179    4.6735 H   0  0  0  0  0  0  0  0  0  0  0  0
   17.9895   16.7189    5.3997 H   0  0  0  0  0  0  0  0  0  0  0  0
   18.1394   18.6687    6.8164 H   0  0  0  0  0  0  0  0  0  0  0  0
   19.8963   19.5725    5.6342 H   0  0  0  0  0  0  0  0  0  0  0  0
   13.2200   24.7437    6.0542 H   0  0  0  0  0  0  0  0  0  0  0  0
   14.5670   24.8929    3.5604 H   0  0  0  0  0  0  0  0  0  0  0  0
   12.0127   25.5911    3.7994 H   0  0  0  0  0  0  0  0  0  0  0  0
   11.3877   23.4052    1.2522 H   0  0  0  0  0  0  0  0  0  0  0  0
   11.5585   25.0533    1.8242 H   0  0  0  0  0  0  0  0  0  0  0  0
    9.5170   26.1827    1.4097 H   0  0  0  0  0  0  0  0  0  0  0  0
    7.0651   26.3826    1.6547 H   0  0  0  0  0  0  0  0  0  0  0  0
    5.7489   24.4875    2.5667 H   0  0  0  0  0  0  0  0  0  0  0  0
    6.8883   22.3773    3.2106 H   0  0  0  0  0  0  0  0  0  0  0  0
    9.3425   22.1587    2.9744 H   0  0  0  0  0  0  0  0  0  0  0  0
   10.1359   26.3799    4.7947 H   0  0  0  0  0  0  0  0  0  0  0  0
    8.8747   24.5554    6.8099 H   0  0  0  0  0  0  0  0  0  0  0  0
    8.0315   25.6704    5.7228 H   0  0  0  0  0  0  0  0  0  0  0  0
    6.9057   27.2195    7.0442 H   0  0  0  0  0  0  0  0  0  0  0  0
    6.8687   28.8548    8.8974 H   0  0  0  0  0  0  0  0  0  0  0  0
    8.8550   29.1265   10.3556 H   0  0  0  0  0  0  0  0  0  0  0  0
   10.8902   27.7576    9.9700 H   0  0  0  0  0  0  0  0  0  0  0  0
   10.9443   26.1106    8.1155 H   0  0  0  0  0  0  0  0  0  0  0  0
  1  2  1  0  0  0  0
  1  3  1  0  0  0  0
  1 25  1  0  0  0  0
  1 46  1  1  0  0  0
  2 47  1  0  0  0  0
  3  4  1  0  0  0  0
  3 12  1  0  0  0  0
  3 48  1  6  0  0  0
  4  5  1  0  0  0  0
  5  6  1  0  0  0  0
  5 49  1  0  0  0  0
  5 50  1  0  0  0  0
  6  7  2  0  0  0  0
  6 11  1  0  0  0  0
  7  8  1  0  0  0  0
  7 51  1  0  0  0  0
  8  9  2  0  0  0  0
  8 52  1  0  0  0  0
  9 10  1  0  0  0  0
  9 53  1  0  0  0  0
 10 11  2  0  0  0  0
 10 54  1  0  0  0  0
 11 55  1  0  0  0  0
 12 13  2  0  0  0  0
 12 14  1  0  0  0  0
 14 15  1  0  0  0  0
 14 56  1  0  0  0  0
 15 16  1  0  0  0  0
 15 23  1  0  0  0  0
 15 57  1  1  0  0  0
 16 17  2  0  0  0  0
 16 21  1  0  0  0  0
 17 18  1  0  0  0  0
 17 58  1  0  0  0  0
 18 19  2  0  0  0  0
 18 59  1  0  0  0  0
 19 20  1  0  0  0  0
 19 60  1  0  0  0  0
 20 21  2  0  0  0  0
 20 61  1  0  0  0  0
 21 22  1  0  0  0  0
 22 23  1  0  0  0  0
 22 62  1  0  0  0  0
 22 63  1  0  0  0  0
 23 24  1  0  0  0  0
 23 64  1  1  0  0  0
 24 65  1  0  0  0  0
 25 26  1  0  0  0  0
 25 27  1  0  0  0  0
 25 66  1  1  0  0  0
 26 67  1  0  0  0  0
 27 28  1  0  0  0  0
 27 36  1  0  0  0  0
 27 68  1  6  0  0  0
 28 29  1  0  0  0  0
 29 30  1  0  0  0  0
 29 69  1  0  0  0  0
 29 70  1  0  0  0  0
 30 31  2  0  0  0  0
 30 35  1  0  0  0  0
 31 32  1  0  0  0  0
 31 71  1  0  0  0  0
 32 33  2  0  0  0  0
 32 72  1  0  0  0  0
 33 34  1  0  0  0  0
 33 73  1  0  0  0  0
 34 35  2  0  0  0  0
 34 74  1  0  0  0  0
 35 75  1  0  0  0  0
 36 37  2  0  0  0  0
 36 38  1  0  0  0  0
 38 39  1  0  0  0  0
 38 76  1  0  0  0  0
 39 40  1  0  0  0  0
 39 77  1  0  0  0  0
 39 78  1  0  0  0  0
 40 41  2  0  0  0  0
 40 45  1  0  0  0  0
 41 42  1  0  0  0  0
 41 79  1  0  0  0  0
 42 43  2  0  0  0  0
 42 80  1  0  0  0  0
 43 44  1  0  0  0  0
 43 81  1  0  0  0  0
 44 45  2  0  0  0  0
 44 82  1  0  0  0  0
 45 83  1  0  0  0  0
M  END
$$$$
