BEJ
 OpenBabel04041914253D

108111  0  0  1  0  0  0  0  0999 V2000
    9.8152   24.3865    2.1232 C   0  0  0  0  0  0  0  0  0  0  0  0
    9.0017   25.5033    1.9046 C   0  0  0  0  0  0  0  0  0  0  0  0
    7.6212   25.4531    2.1512 C   0  0  0  0  0  0  0  0  0  0  0  0
    6.9854   24.2703    2.6294 C   0  0  0  0  0  0  0  0  0  0  0  0
    7.8222   23.1527    2.8178 C   0  0  0  0  0  0  0  0  0  0  0  0
    9.2146   23.2029    2.5577 C   0  0  0  0  0  0  0  0  0  0  0  0
   16.2969   22.4606    8.5652 C   0  0  0  0  0  0  0  0  0  0  0  0
   15.5023   21.5903    9.3259 C   0  0  0  0  0  0  0  0  0  0  0  0
   16.0581   20.4359    9.9070 C   0  0  0  0  0  0  0  0  0  0  0  0
   17.4157   20.1086    9.7664 C   0  0  0  0  0  0  0  0  0  0  0  0
   18.2010   21.0155    9.0075 C   0  0  0  0  0  0  0  0  0  0  0  0
   17.6525   22.1667    8.4169 C   0  0  0  0  0  0  0  0  0  0  0  0
   15.6810   23.6747    7.9127 C   0  0  0  0  0  0  0  0  0  0  0  0
   14.6333   23.3154    7.0108 O   0  0  0  0  0  0  0  0  0  0  0  0
   15.1132   22.8640    5.7380 C   0  0  2  0  0  0  0  0  0  0  0  0
   14.0983   23.2161    4.6337 C   0  0  1  0  0  0  0  0  0  0  0  0
   13.6712   24.6909    4.7101 C   0  0  2  0  0  0  0  0  0  0  0  0
   12.3086   24.9486    3.9916 C   0  0  2  0  0  0  0  0  0  0  0  0
   11.1793   24.8328    5.0795 C   0  0  0  0  0  0  0  0  0  0  0  0
   10.9387   23.7744    5.6579 O   0  0  0  0  0  0  0  0  0  0  0  0
   10.5077   26.0053    5.3437 N   0  0  0  0  0  0  0  0  0  0  0  0
    9.3669   26.1667    6.2848 C   0  0  1  0  0  0  0  0  0  0  0  0
    9.8258   26.8344    7.6234 C   0  0  0  0  0  0  0  0  0  0  0  0
   10.9203   26.0482    8.3603 C   0  0  0  0  0  0  0  0  0  0  0  0
    8.6791   27.0843    8.6162 C   0  0  0  0  0  0  0  0  0  0  0  0
    8.3600   27.1030    5.5427 C   0  0  0  0  0  0  0  0  0  0  0  0
    8.7334   28.1385    4.9785 O   0  0  0  0  0  0  0  0  0  0  0  0
    7.0348   26.7059    5.5639 N   0  0  0  0  0  0  0  0  0  0  0  0
    5.9827   27.4500    4.9039 C   0  0  0  0  0  0  0  0  0  0  0  0
   12.1366   24.0133    2.9077 O   0  0  0  0  0  0  0  0  0  0  0  0
   11.3020   24.4828    1.8479 C   0  0  0  0  0  0  0  0  0  0  0  0
   14.7292   25.5299    4.1865 O   0  0  0  0  0  0  0  0  0  0  0  0
   14.6754   22.9677    3.3300 O   0  0  0  0  0  0  0  0  0  0  0  0
   15.2386   21.3293    5.6858 C   0  0  0  0  0  0  0  0  0  0  0  0
   14.3475   20.5721    6.0634 O   0  0  0  0  0  0  0  0  0  0  0  0
   16.4227   20.8783    5.1207 N   0  0  0  0  0  0  0  0  0  0  0  0
   16.7722   19.4752    4.9661 C   0  0  1  0  0  0  0  0  0  0  0  0
   16.8272   19.0639    3.4690 C   0  0  0  0  0  0  0  0  0  0  0  0
   17.2430   17.6002    3.2620 C   0  0  0  0  0  0  0  0  0  0  0  0
   15.4978   19.3151    2.7557 C   0  0  0  0  0  0  0  0  0  0  0  0
   18.1906   19.3535    5.5642 C   0  0  0  0  0  0  0  0  0  0  0  0
   19.1103   20.0945    5.2182 O   0  0  0  0  0  0  0  0  0  0  0  0
   18.3500   18.3458    6.4907 N   0  0  0  0  0  0  0  0  0  0  0  0
   19.6280   18.1183    7.1121 C   0  0  0  0  0  0  0  0  0  0  0  0
    5.5111   24.2185    2.8837 C   0  0  0  0  0  0  0  0  0  0  0  0
    4.9126   23.4831    3.9302 C   0  0  0  0  0  0  0  0  0  0  0  0
    3.5288   23.4719    4.1084 C   0  0  0  0  0  0  0  0  0  0  0  0
    2.7397   24.1959    3.2436 C   0  0  0  0  0  0  0  0  0  0  0  0
    3.2475   24.9326    2.2343 N   0  0  0  0  0  0  0  0  0  0  0  0
    4.5984   24.9225    2.0733 C   0  0  0  0  0  0  0  0  0  0  0  0
   18.0006   18.8848   10.3882 C   0  0  0  0  0  0  0  0  0  0  0  0
   17.2918   17.6788   10.5580 C   0  0  0  0  0  0  0  0  0  0  0  0
   17.8884   16.5573   11.1561 C   0  0  0  0  0  0  0  0  0  0  0  0
   19.1983   16.6608   11.5796 C   0  0  0  0  0  0  0  0  0  0  0  0
   19.9301   17.7861   11.4417 N   0  0  0  0  0  0  0  0  0  0  0  0
   19.3166   18.8541   10.8629 C   0  0  0  0  0  0  0  0  0  0  0  0
    9.4413   26.4369    1.5454 H   0  0  0  0  0  0  0  0  0  0  0  0
    7.0500   26.3579    1.9845 H   0  0  0  0  0  0  0  0  0  0  0  0
    7.4089   22.2063    3.1639 H   0  0  0  0  0  0  0  0  0  0  0  0
    9.8145   22.3109    2.7219 H   0  0  0  0  0  0  0  0  0  0  0  0
   14.4445   21.8039    9.4510 H   0  0  0  0  0  0  0  0  0  0  0  0
   15.3922   19.7971   10.4917 H   0  0  0  0  0  0  0  0  0  0  0  0
   19.2611   20.8300    8.8437 H   0  0  0  0  0  0  0  0  0  0  0  0
   18.2958   22.8234    7.8287 H   0  0  0  0  0  0  0  0  0  0  0  0
   16.4282   24.2861    7.3931 H   0  0  0  0  0  0  0  0  0  0  0  0
   15.2515   24.3180    8.6894 H   0  0  0  0  0  0  0  0  0  0  0  0
   16.0787   23.3304    5.5077 H   0  0  0  0  0  0  0  0  0  0  0  0
   13.2088   22.5854    4.7499 H   0  0  0  0  0  0  0  0  0  0  0  0
   13.5653   25.0032    5.7504 H   0  0  0  0  0  0  0  0  0  0  0  0
   12.3375   25.9662    3.5850 H   0  0  0  0  0  0  0  0  0  0  0  0
   10.7343   26.8318    4.8018 H   0  0  0  0  0  0  0  0  0  0  0  0
    8.8895   25.1992    6.4676 H   0  0  0  0  0  0  0  0  0  0  0  0
   10.2497   27.8175    7.3772 H   0  0  0  0  0  0  0  0  0  0  0  0
   11.2037   26.5583    9.2903 H   0  0  0  0  0  0  0  0  0  0  0  0
   11.8275   25.9628    7.7567 H   0  0  0  0  0  0  0  0  0  0  0  0
   10.5833   25.0415    8.6288 H   0  0  0  0  0  0  0  0  0  0  0  0
    7.8631   27.6534    8.1640 H   0  0  0  0  0  0  0  0  0  0  0  0
    9.0370   27.6722    9.4734 H   0  0  0  0  0  0  0  0  0  0  0  0
    8.2729   26.1476    9.0129 H   0  0  0  0  0  0  0  0  0  0  0  0
    6.7921   25.8177    5.9754 H   0  0  0  0  0  0  0  0  0  0  0  0
    5.0397   26.9298    5.0200 H   0  0  0  0  0  0  0  0  0  0  0  0
    6.2153   27.5613    3.8402 H   0  0  0  0  0  0  0  0  0  0  0  0
    5.9179   28.4454    5.3627 H   0  0  0  0  0  0  0  0  0  0  0  0
   11.5943   25.5071    1.5967 H   0  0  0  0  0  0  0  0  0  0  0  0
   11.5259   23.8760    0.9606 H   0  0  0  0  0  0  0  0  0  0  0  0
   14.9678   25.1922    3.3017 H   0  0  0  0  0  0  0  0  0  0  0  0
   13.9387   23.0597    2.6921 H   0  0  0  0  0  0  0  0  0  0  0  0
   17.1165   21.5644    4.8405 H   0  0  0  0  0  0  0  0  0  0  0  0
   16.0622   18.8538    5.5212 H   0  0  0  0  0  0  0  0  0  0  0  0
   17.5819   19.6878    2.9691 H   0  0  0  0  0  0  0  0  0  0  0  0
   17.2589   17.3479    2.1953 H   0  0  0  0  0  0  0  0  0  0  0  0
   16.5534   16.9078    3.7567 H   0  0  0  0  0  0  0  0  0  0  0  0
   18.2501   17.4117    3.6469 H   0  0  0  0  0  0  0  0  0  0  0  0
   15.1732   20.3512    2.8745 H   0  0  0  0  0  0  0  0  0  0  0  0
   14.7079   18.6605    3.1376 H   0  0  0  0  0  0  0  0  0  0  0  0
   15.6015   19.1341    1.6799 H   0  0  0  0  0  0  0  0  0  0  0  0
   17.5476   17.8067    6.7969 H   0  0  0  0  0  0  0  0  0  0  0  0
   19.5407   17.3069    7.8369 H   0  0  0  0  0  0  0  0  0  0  0  0
   19.9632   19.0309    7.6099 H   0  0  0  0  0  0  0  0  0  0  0  0
   20.3526   17.8555    6.3373 H   0  0  0  0  0  0  0  0  0  0  0  0
    5.5286   22.9083    4.6165 H   0  0  0  0  0  0  0  0  0  0  0  0
    3.0597   22.8996    4.9121 H   0  0  0  0  0  0  0  0  0  0  0  0
    1.6596   24.2164    3.3311 H   0  0  0  0  0  0  0  0  0  0  0  0
    4.9401   25.5042    1.2296 H   0  0  0  0  0  0  0  0  0  0  0  0
   16.2623   17.5889   10.2207 H   0  0  0  0  0  0  0  0  0  0  0  0
   17.3463   15.6265   11.2894 H   0  0  0  0  0  0  0  0  0  0  0  0
   19.7088   15.8239   12.0522 H   0  0  0  0  0  0  0  0  0  0  0  0
   19.9519   19.7351   10.7970 H   0  0  0  0  0  0  0  0  0  0  0  0
  1  2  2  0  0  0  0
  1  6  1  0  0  0  0
  1 31  1  0  0  0  0
  2  3  1  0  0  0  0
  2 57  1  0  0  0  0
  3  4  2  0  0  0  0
  3 58  1  0  0  0  0
  4  5  1  0  0  0  0
  4 45  1  0  0  0  0
  5  6  2  0  0  0  0
  5 59  1  0  0  0  0
  6 60  1  0  0  0  0
  7  8  2  0  0  0  0
  7 12  1  0  0  0  0
  7 13  1  0  0  0  0
  8  9  1  0  0  0  0
  8 61  1  0  0  0  0
  9 10  2  0  0  0  0
  9 62  1  0  0  0  0
 10 11  1  0  0  0  0
 10 51  1  0  0  0  0
 11 12  2  0  0  0  0
 11 63  1  0  0  0  0
 12 64  1  0  0  0  0
 13 14  1  0  0  0  0
 13 65  1  0  0  0  0
 13 66  1  0  0  0  0
 14 15  1  0  0  0  0
 15 16  1  0  0  0  0
 15 34  1  0  0  0  0
 15 67  1  6  0  0  0
 16 17  1  0  0  0  0
 16 33  1  0  0  0  0
 16 68  1  1  0  0  0
 17 18  1  0  0  0  0
 17 32  1  0  0  0  0
 17 69  1  1  0  0  0
 18 19  1  0  0  0  0
 18 30  1  0  0  0  0
 18 70  1  6  0  0  0
 19 20  2  0  0  0  0
 19 21  1  0  0  0  0
 21 22  1  0  0  0  0
 21 71  1  0  0  0  0
 22 23  1  0  0  0  0
 22 26  1  0  0  0  0
 22 72  1  1  0  0  0
 23 24  1  0  0  0  0
 23 25  1  0  0  0  0
 23 73  1  0  0  0  0
 24 74  1  0  0  0  0
 24 75  1  0  0  0  0
 24 76  1  0  0  0  0
 25 77  1  0  0  0  0
 25 78  1  0  0  0  0
 25 79  1  0  0  0  0
 26 27  2  0  0  0  0
 26 28  1  0  0  0  0
 28 29  1  0  0  0  0
 28 80  1  0  0  0  0
 29 81  1  0  0  0  0
 29 82  1  0  0  0  0
 29 83  1  0  0  0  0
 30 31  1  0  0  0  0
 31 84  1  0  0  0  0
 31 85  1  0  0  0  0
 32 86  1  0  0  0  0
 33 87  1  0  0  0  0
 34 35  2  0  0  0  0
 34 36  1  0  0  0  0
 36 37  1  0  0  0  0
 36 88  1  0  0  0  0
 37 38  1  0  0  0  0
 37 41  1  0  0  0  0
 37 89  1  1  0  0  0
 38 39  1  0  0  0  0
 38 40  1  0  0  0  0
 38 90  1  0  0  0  0
 39 91  1  0  0  0  0
 39 92  1  0  0  0  0
 39 93  1  0  0  0  0
 40 94  1  0  0  0  0
 40 95  1  0  0  0  0
 40 96  1  0  0  0  0
 41 42  2  0  0  0  0
 41 43  1  0  0  0  0
 43 44  1  0  0  0  0
 43 97  1  0  0  0  0
 44 98  1  0  0  0  0
 44 99  1  0  0  0  0
 44100  1  0  0  0  0
 45 46  2  0  0  0  0
 45 50  1  0  0  0  0
 46 47  1  0  0  0  0
 46101  1  0  0  0  0
 47 48  2  0  0  0  0
 47102  1  0  0  0  0
 48 49  1  0  0  0  0
 48103  1  0  0  0  0
 49 50  2  0  0  0  0
 50104  1  0  0  0  0
 51 52  2  0  0  0  0
 51 56  1  0  0  0  0
 52 53  1  0  0  0  0
 52105  1  0  0  0  0
 53 54  2  0  0  0  0
 53106  1  0  0  0  0
 54 55  1  0  0  0  0
 54107  1  0  0  0  0
 55 56  2  0  0  0  0
 56108  1  0  0  0  0
M  END
$$$$
