BEN
 OpenBabel04041914543D

 18 18  0  0  0  0  0  0  0  0999 V2000
   50.3348   36.7874   39.3536 C   0  0  0  0  0  0  0  0  0  0  0  0
   50.3462   35.8857   40.4286 C   0  0  0  0  0  0  0  0  0  0  0  0
   49.8928   34.5726   40.2475 C   0  0  0  0  0  0  0  0  0  0  0  0
   49.4214   34.1296   39.0029 C   0  0  0  0  0  0  0  0  0  0  0  0
   49.4024   35.0148   37.9182 C   0  0  0  0  0  0  0  0  0  0  0  0
   49.8603   36.3279   38.1124 C   0  0  0  0  0  0  0  0  0  0  0  0
   50.8079   38.1680   39.5339 C   0  0  0  0  0  0  0  0  0  0  0  0
   50.9781   38.6768   40.7188 N   0  0  0  0  0  0  0  0  0  0  0  0
   51.0631   38.9112   38.4914 N   0  0  0  0  0  0  0  0  0  0  0  0
   50.7167   36.1979   41.4126 H   0  0  0  0  0  0  0  0  0  0  0  0
   49.9130   33.8953   41.0939 H   0  0  0  0  0  0  0  0  0  0  0  0
   49.0701   33.0896   38.8889 H   0  0  0  0  0  0  0  0  0  0  0  0
   49.0412   34.7067   36.9343 H   0  0  0  0  0  0  0  0  0  0  0  0
   49.8369   37.0187   37.2768 H   0  0  0  0  0  0  0  0  0  0  0  0
   51.2990   39.6378   40.8425 H   0  0  0  0  0  0  0  0  0  0  0  0
   50.7884   38.1557   41.5636 H   0  0  0  0  0  0  0  0  0  0  0  0
   51.3939   39.8726   38.5859 H   0  0  0  0  0  0  0  0  0  0  0  0
   50.9699   38.5874   37.5414 H   0  0  0  0  0  0  0  0  0  0  0  0
  1  7  1  0  0  0  0
  1  6  2  0  0  0  0
  1  2  1  0  0  0  0
  2  3  2  0  0  0  0
  2 10  1  0  0  0  0
  3  4  1  0  0  0  0
  3 11  1  0  0  0  0
  4  5  2  0  0  0  0
  4 12  1  0  0  0  0
  5  6  1  0  0  0  0
  5 13  1  0  0  0  0
  6 14  1  0  0  0  0
  7  9  2  0  0  0  0
  7  8  1  0  0  0  0
  8 15  1  0  0  0  0
  8 16  1  0  0  0  0
  9 17  1  0  0  0  0
  9 18  1  0  0  0  0
M  END
$$$$
