BES
 OpenBabel04041917033D

 46 46  0  0  1  0  0  0  0  0999 V2000
   34.0251   -3.2989   40.2048 N   0  3  0  0  0  0  0  0  0  0  0  0
   34.4940   -3.7611   41.5774 C   0  0  2  0  0  0  0  0  0  0  0  0
   34.0206   -2.7259   42.6033 C   0  0  0  0  0  0  0  0  0  0  0  0
   32.5384   -2.6611   42.9128 C   0  0  0  0  0  0  0  0  0  0  0  0
   31.8737   -1.4158   42.9010 C   0  0  0  0  0  0  0  0  0  0  0  0
   31.8128   -3.8126   43.2712 C   0  0  0  0  0  0  0  0  0  0  0  0
   30.5074   -1.3335   43.2133 C   0  0  0  0  0  0  0  0  0  0  0  0
   30.4463   -3.7312   43.5850 C   0  0  0  0  0  0  0  0  0  0  0  0
   29.7948   -2.4914   43.5534 C   0  0  0  0  0  0  0  0  0  0  0  0
   36.0408   -3.8843   41.5715 C   0  0  2  0  0  0  0  0  0  0  0  0
   36.4604   -4.7616   40.5079 O   0  0  0  0  0  0  0  0  0  0  0  0
   36.5311   -4.4294   42.9320 C   0  0  0  0  0  0  0  0  0  0  0  0
   36.4992   -5.6306   43.1417 O   0  0  0  0  0  0  0  0  0  0  0  0
   37.0585   -3.4800   43.7852 N   0  0  0  0  0  0  0  0  0  0  0  0
   37.4751   -3.8202   45.1883 C   0  0  1  0  0  0  0  0  0  0  0  0
   38.4153   -2.7532   45.8453 C   0  0  0  0  0  0  0  0  0  0  0  0
   39.9759   -2.9149   45.7955 C   0  0  0  0  0  0  0  0  0  0  0  0
   40.5845   -2.2865   44.5418 C   0  0  0  0  0  0  0  0  0  0  0  0
   40.4535   -4.3564   45.8798 C   0  0  0  0  0  0  0  0  0  0  0  0
   36.2105   -4.1240   46.1079 C   0  0  0  0  0  0  0  0  0  0  0  0
   36.4207   -4.9625   47.0575 O   0  0  0  0  0  0  0  0  0  0  0  0
   35.1669   -3.5401   45.7669 O   0  0  0  0  0  0  0  0  0  0  0  0
   34.3080   -3.9592   39.4659 H   0  0  0  0  0  0  0  0  0  0  0  0
   32.9980   -3.2086   40.1902 H   0  0  0  0  0  0  0  0  0  0  0  0
   34.0310   -4.7423   41.7143 H   0  0  0  0  0  0  0  0  0  0  0  0
   34.3494   -1.7333   42.2587 H   0  0  0  0  0  0  0  0  0  0  0  0
   34.5480   -2.9413   43.5250 H   0  0  0  0  0  0  0  0  0  0  0  0
   32.4144   -0.5033   42.6417 H   0  0  0  0  0  0  0  0  0  0  0  0
   32.3042   -4.7858   43.3122 H   0  0  0  0  0  0  0  0  0  0  0  0
   29.9981   -0.3682   43.1972 H   0  0  0  0  0  0  0  0  0  0  0  0
   29.8919   -4.6302   43.8604 H   0  0  0  0  0  0  0  0  0  0  0  0
   28.7350   -2.4305   43.7974 H   0  0  0  0  0  0  0  0  0  0  0  0
   36.4847   -2.9017   41.3723 H   0  0  0  0  0  0  0  0  0  0  0  0
   36.1241   -5.6582   40.7276 H   0  0  0  0  0  0  0  0  0  0  0  0
   36.9700   -2.5099   43.5528 H   0  0  0  0  0  0  0  0  0  0  0  0
   38.0508   -4.7344   45.0878 H   0  0  0  0  0  0  0  0  0  0  0  0
   38.1746   -2.7179   46.9177 H   0  0  0  0  0  0  0  0  0  0  0  0
   38.1926   -1.7703   45.4163 H   0  0  0  0  0  0  0  0  0  0  0  0
   40.3935   -2.3654   46.6589 H   0  0  0  0  0  0  0  0  0  0  0  0
   41.6778   -2.4042   44.5447 H   0  0  0  0  0  0  0  0  0  0  0  0
   40.3587   -1.2156   44.4901 H   0  0  0  0  0  0  0  0  0  0  0  0
   40.1875   -2.7766   43.6483 H   0  0  0  0  0  0  0  0  0  0  0  0
   40.0499   -4.8422   46.7711 H   0  0  0  0  0  0  0  0  0  0  0  0
   41.5493   -4.4028   45.9220 H   0  0  0  0  0  0  0  0  0  0  0  0
   40.1327   -4.9119   44.9928 H   0  0  0  0  0  0  0  0  0  0  0  0
   34.4283   -2.3807   39.9775 H   0  0  0  0  0  0  0  0  0  0  0  0
  1  2  1  0  0  0  0
  1 23  1  0  0  0  0
  1 24  1  0  0  0  0
  1 46  1  0  0  0  0
  2  3  1  0  0  0  0
  2 10  1  0  0  0  0
  2 25  1  1  0  0  0
  3  4  1  0  0  0  0
  3 26  1  0  0  0  0
  3 27  1  0  0  0  0
  4  5  2  0  0  0  0
  4  6  1  0  0  0  0
  5  7  1  0  0  0  0
  5 28  1  0  0  0  0
  6  8  2  0  0  0  0
  6 29  1  0  0  0  0
  7  9  2  0  0  0  0
  7 30  1  0  0  0  0
  8  9  1  0  0  0  0
  8 31  1  0  0  0  0
  9 32  1  0  0  0  0
 10 11  1  0  0  0  0
 10 12  1  0  0  0  0
 10 33  1  6  0  0  0
 11 34  1  0  0  0  0
 12 13  2  0  0  0  0
 12 14  1  0  0  0  0
 14 15  1  0  0  0  0
 14 35  1  0  0  0  0
 15 16  1  0  0  0  0
 15 20  1  0  0  0  0
 15 36  1  6  0  0  0
 16 17  1  0  0  0  0
 16 37  1  0  0  0  0
 16 38  1  0  0  0  0
 17 18  1  0  0  0  0
 17 19  1  0  0  0  0
 17 39  1  0  0  0  0
 18 40  1  0  0  0  0
 18 41  1  0  0  0  0
 18 42  1  0  0  0  0
 19 43  1  0  0  0  0
 19 44  1  0  0  0  0
 19 45  1  0  0  0  0
 20 21  2  0  0  0  0
 20 22  1  0  0  0  0
M  CHG  1   1   1
M  END
$$$$
