BET
 OpenBabel04041916533D

 19 18  0  0  0  0  0  0  0  0999 V2000
   14.4333   19.3028   12.7170 N   0  3  0  0  0  0  0  0  0  0  0  0
   15.4021   18.7741   11.5922 C   0  0  0  0  0  0  0  0  0  0  0  0
   15.5525   17.2252   11.4957 C   0  0  0  0  0  0  0  0  0  0  0  0
   16.4573   16.7588   12.2472 O   0  0  0  0  0  0  0  0  0  0  0  0
   14.6723   16.6553   10.8037 O   0  0  0  0  0  0  0  0  0  0  0  0
   13.0486   18.7772   12.4030 C   0  0  0  0  0  0  0  0  0  0  0  0
   14.9151   18.7580   14.0490 C   0  0  0  0  0  0  0  0  0  0  0  0
   14.4371   20.7972   12.7323 C   0  0  0  0  0  0  0  0  0  0  0  0
   16.3771   19.2274   11.8032 H   0  0  0  0  0  0  0  0  0  0  0  0
   15.0287   19.1835   10.6454 H   0  0  0  0  0  0  0  0  0  0  0  0
   12.3765   19.1197   13.1951 H   0  0  0  0  0  0  0  0  0  0  0  0
   13.0599   17.6866   12.3766 H   0  0  0  0  0  0  0  0  0  0  0  0
   12.7394   19.1942   11.4394 H   0  0  0  0  0  0  0  0  0  0  0  0
   15.9305   19.1272   14.2246 H   0  0  0  0  0  0  0  0  0  0  0  0
   14.8839   17.6669   14.0418 H   0  0  0  0  0  0  0  0  0  0  0  0
   14.2420   19.1378   14.8236 H   0  0  0  0  0  0  0  0  0  0  0  0
   14.1028   21.1567   11.7552 H   0  0  0  0  0  0  0  0  0  0  0  0
   15.4521   21.1431   12.9457 H   0  0  0  0  0  0  0  0  0  0  0  0
   13.7490   21.1277   13.5161 H   0  0  0  0  0  0  0  0  0  0  0  0
  1  2  1  0  0  0  0
  1  6  1  0  0  0  0
  1  7  1  0  0  0  0
  1  8  1  0  0  0  0
  2  3  1  0  0  0  0
  2  9  1  0  0  0  0
  2 10  1  0  0  0  0
  3  4  2  0  0  0  0
  3  5  1  0  0  0  0
  6 11  1  0  0  0  0
  6 12  1  0  0  0  0
  6 13  1  0  0  0  0
  7 14  1  0  0  0  0
  7 15  1  0  0  0  0
  7 16  1  0  0  0  0
  8 17  1  0  0  0  0
  8 18  1  0  0  0  0
  8 19  1  0  0  0  0
M  CHG  1   1   1
M  END
$$$$
