BHB
 OpenBabel04041916323D

 40 41  0  0  0  0  0  0  0  0999 V2000
   19.2109   17.8936   18.1484 N   0  0  0  0  0  0  0  0  0  0  0  0
   18.2570   17.6116   19.1456 C   0  0  0  0  0  0  0  0  0  0  0  0
   16.9402   17.2109   18.7994 C   0  0  0  0  0  0  0  0  0  0  0  0
   15.9486   16.9105   19.7837 C   0  0  0  0  0  0  0  0  0  0  0  0
   16.2849   17.0353   21.1610 C   0  0  0  0  0  0  0  0  0  0  0  0
   15.3106   16.7534   22.1498 N   0  0  0  0  0  0  0  0  0  0  0  0
   15.5985   16.8581   23.3837 C   0  0  0  0  0  0  0  0  0  0  0  0
   14.6892   16.5999   24.3445 N   0  0  0  0  0  0  0  0  0  0  0  0
   16.8140   17.2240   23.8634 N   0  3  0  0  0  0  0  0  0  0  0  0
   17.8533   17.5245   22.9973 C   0  0  0  0  0  0  0  0  0  0  0  0
   18.9390   17.8515   23.4684 O   0  0  0  0  0  0  0  0  0  0  0  0
   17.5817   17.4298   21.5351 C   0  0  0  0  0  0  0  0  0  0  0  0
   18.5607   17.7148   20.5334 C   0  0  0  0  0  0  0  0  0  0  0  0
   14.5529   16.4880   19.3541 C   0  0  0  0  0  0  0  0  0  0  0  0
   13.4013   17.9077   19.4074 S   0  0  0  0  0  0  0  0  0  0  0  0
   12.6751   17.6945   17.7724 C   0  0  0  0  0  0  0  0  0  0  0  0
   13.6869   18.0493   16.6926 C   0  0  0  0  0  0  0  0  0  0  0  0
   13.1296   17.7490   15.3224 N   0  3  0  0  0  0  0  0  0  0  0  0
   14.2294   17.6555   14.3088 C   0  0  0  0  0  0  0  0  0  0  0  0
   12.1157   18.7706   14.8985 C   0  0  0  0  0  0  0  0  0  0  0  0
   19.0111   17.8209   17.1523 H   0  0  0  0  0  0  0  0  0  0  0  0
   20.1669   18.1812   18.3740 H   0  0  0  0  0  0  0  0  0  0  0  0
   16.6730   17.1175   17.7451 H   0  0  0  0  0  0  0  0  0  0  0  0
   13.7661   16.3247   24.0438 H   0  0  0  0  0  0  0  0  0  0  0  0
   14.9203   16.6819   25.3172 H   0  0  0  0  0  0  0  0  0  0  0  0
   16.9726   17.2807   24.8579 H   0  0  0  0  0  0  0  0  0  0  0  0
   19.5631   18.0188   20.8487 H   0  0  0  0  0  0  0  0  0  0  0  0
   14.1576   15.6794   19.9816 H   0  0  0  0  0  0  0  0  0  0  0  0
   14.5716   16.0955   18.3226 H   0  0  0  0  0  0  0  0  0  0  0  0
   11.8040   18.3464   17.6937 H   0  0  0  0  0  0  0  0  0  0  0  0
   12.3558   16.6540   17.6641 H   0  0  0  0  0  0  0  0  0  0  0  0
   14.5972   17.4547   16.7934 H   0  0  0  0  0  0  0  0  0  0  0  0
   13.9384   19.1110   16.7150 H   0  0  0  0  0  0  0  0  0  0  0  0
   13.7825   17.4303   13.3401 H   0  0  0  0  0  0  0  0  0  0  0  0
   14.9076   16.8562   14.6118 H   0  0  0  0  0  0  0  0  0  0  0  0
   14.7469   18.6143   14.2858 H   0  0  0  0  0  0  0  0  0  0  0  0
   11.3252   18.8061   15.6466 H   0  0  0  0  0  0  0  0  0  0  0  0
   11.7089   18.4676   13.9334 H   0  0  0  0  0  0  0  0  0  0  0  0
   12.6200   19.7336   14.8221 H   0  0  0  0  0  0  0  0  0  0  0  0
   12.6615   16.8333   15.3603 H   0  0  0  0  0  0  0  0  0  0  0  0
  1  2  1  0  0  0  0
  1 21  1  0  0  0  0
  1 22  1  0  0  0  0
  2  3  2  0  0  0  0
  2 13  1  0  0  0  0
  3  4  1  0  0  0  0
  3 23  1  0  0  0  0
  4  5  2  0  0  0  0
  4 14  1  0  0  0  0
  5  6  1  0  0  0  0
  5 12  1  0  0  0  0
  6  7  2  0  0  0  0
  7  8  1  0  0  0  0
  7  9  1  0  0  0  0
  8 24  1  0  0  0  0
  8 25  1  0  0  0  0
  9 10  1  0  0  0  0
  9 26  1  0  0  0  0
 10 11  2  0  0  0  0
 10 12  1  0  0  0  0
 12 13  2  0  0  0  0
 13 27  1  0  0  0  0
 14 15  1  0  0  0  0
 14 28  1  0  0  0  0
 14 29  1  0  0  0  0
 15 16  1  0  0  0  0
 16 17  1  0  0  0  0
 16 30  1  0  0  0  0
 16 31  1  0  0  0  0
 17 18  1  0  0  0  0
 17 32  1  0  0  0  0
 17 33  1  0  0  0  0
 18 19  1  0  0  0  0
 18 20  1  0  0  0  0
 18 40  1  0  0  0  0
 19 34  1  0  0  0  0
 19 35  1  0  0  0  0
 19 36  1  0  0  0  0
 20 37  1  0  0  0  0
 20 38  1  0  0  0  0
 20 39  1  0  0  0  0
M  CHG  2   9   1  18   1
M  END
$$$$
