BHC
 OpenBabel04041914043D

 24 24  0  0  0  0  0  0  0  0999 V2000
    7.5009   -8.6654   35.1718 C   0  0  0  0  0  0  0  0  0  0  0  0
    8.3885   -7.4144   35.2123 C   0  0  0  0  0  0  0  0  0  0  0  0
    9.3096   -7.2965   36.0975 O   0  0  0  0  0  0  0  0  0  0  0  0
    8.1873   -6.4954   34.3246 O   0  0  0  0  0  0  0  0  0  0  0  0
    6.1075   -8.6079   35.5212 C   0  0  0  0  0  0  0  0  0  0  0  0
    5.4863   -7.3033   36.0405 C   0  0  0  0  0  0  0  0  0  0  0  0
    5.3317   -7.1696   37.3073 O   0  0  0  0  0  0  0  0  0  0  0  0
    5.1375   -6.3894   35.2086 O   0  0  0  0  0  0  0  0  0  0  0  0
    5.2815   -9.7838   35.3889 C   0  0  0  0  0  0  0  0  0  0  0  0
    3.7885   -9.7170   35.7307 C   0  0  0  0  0  0  0  0  0  0  0  0
    3.4106   -9.8937   36.9430 O   0  0  0  0  0  0  0  0  0  0  0  0
    2.9626   -9.4490   34.7849 O   0  0  0  0  0  0  0  0  0  0  0  0
    5.8479  -11.0120   34.8859 C   0  0  0  0  0  0  0  0  0  0  0  0
    4.9343  -12.2186   34.6010 C   0  0  0  0  0  0  0  0  0  0  0  0
    4.4311  -12.8706   35.5786 O   0  0  0  0  0  0  0  0  0  0  0  0
    4.6933  -12.5196   33.3810 O   0  0  0  0  0  0  0  0  0  0  0  0
    7.2592  -11.0931   34.5904 C   0  0  0  0  0  0  0  0  0  0  0  0
    7.8568  -12.4447   34.1487 C   0  0  0  0  0  0  0  0  0  0  0  0
    7.7023  -13.4661   34.9225 O   0  0  0  0  0  0  0  0  0  0  0  0
    8.4718  -12.5331   33.0402 O   0  0  0  0  0  0  0  0  0  0  0  0
    8.0888   -9.9045   34.7269 C   0  0  0  0  0  0  0  0  0  0  0  0
    9.5839   -9.8959   34.4174 C   0  0  0  0  0  0  0  0  0  0  0  0
   10.3998  -10.1636   35.3761 O   0  0  0  0  0  0  0  0  0  0  0  0
    9.9901   -9.5353   33.2438 O   0  0  0  0  0  0  0  0  0  0  0  0
  1 21  2  0  0  0  0
  1  5  1  0  0  0  0
  1  2  1  0  0  0  0
  2  4  2  0  0  0  0
  2  3  1  0  0  0  0
  5  9  2  0  0  0  0
  5  6  1  0  0  0  0
  6  8  2  0  0  0  0
  6  7  1  0  0  0  0
  9 13  1  0  0  0  0
  9 10  1  0  0  0  0
 10 12  2  0  0  0  0
 10 11  1  0  0  0  0
 13 17  2  0  0  0  0
 13 14  1  0  0  0  0
 14 16  2  0  0  0  0
 14 15  1  0  0  0  0
 17 21  1  0  0  0  0
 17 18  1  0  0  0  0
 18 20  2  0  0  0  0
 18 19  1  0  0  0  0
 21 22  1  0  0  0  0
 22 24  2  0  0  0  0
 22 23  1  0  0  0  0
M  END
$$$$
