BMZ
 OpenBabel04041914493D

 32 34  0  0  0  0  0  0  0  0999 V2000
   29.4056   15.0541   16.9942 C   0  0  0  0  0  0  0  0  0  0  0  0
   28.9294   15.8908   18.0287 C   0  0  0  0  0  0  0  0  0  0  0  0
   28.6524   15.4247   19.3136 C   0  0  0  0  0  0  0  0  0  0  0  0
   28.9058   14.0841   19.5290 C   0  0  0  0  0  0  0  0  0  0  0  0
   29.3369   13.1983   18.5531 C   0  0  0  0  0  0  0  0  0  0  0  0
   29.6005   13.6824   17.2685 C   0  0  0  0  0  0  0  0  0  0  0  0
   29.6936   15.6072   15.6579 C   0  0  0  0  0  0  0  0  0  0  0  0
   30.4457   14.9374   14.8124 N   0  0  0  0  0  0  0  0  0  0  0  0
   29.2002   16.7768   15.3116 N   0  0  0  0  0  0  0  0  0  0  0  0
   28.8470   13.3300   20.6582 N   0  3  0  0  0  0  0  0  0  0  0  0
   29.4176   11.9274   19.0472 N   0  0  0  0  0  0  0  0  0  0  0  0
   29.0432   12.0122   20.3160 C   0  0  0  0  0  0  0  0  0  0  0  0
   28.8541   10.9312   21.2725 C   0  0  0  0  0  0  0  0  0  0  0  0
   29.4264    9.6839   21.0112 C   0  0  0  0  0  0  0  0  0  0  0  0
   29.2824    8.6332   21.9157 C   0  0  0  0  0  0  0  0  0  0  0  0
   28.5496    8.8128   23.0948 C   0  0  0  0  0  0  0  0  0  0  0  0
   27.9694   10.0532   23.3650 C   0  0  0  0  0  0  0  0  0  0  0  0
   28.1289   11.0980   22.4644 C   0  0  0  0  0  0  0  0  0  0  0  0
   27.5418   12.2932   22.8061 O   0  0  0  0  0  0  0  0  0  0  0  0
   28.7784   16.9569   17.8815 H   0  0  0  0  0  0  0  0  0  0  0  0
   28.2814   16.0736   20.1008 H   0  0  0  0  0  0  0  0  0  0  0  0
   29.9416   12.9607   16.5342 H   0  0  0  0  0  0  0  0  0  0  0  0
   30.6551   15.2871   13.8799 H   0  0  0  0  0  0  0  0  0  0  0  0
   28.5950   17.3041   15.9260 H   0  0  0  0  0  0  0  0  0  0  0  0
   29.3923   17.2047   14.4148 H   0  0  0  0  0  0  0  0  0  0  0  0
   28.6328   13.6503   21.5884 H   0  0  0  0  0  0  0  0  0  0  0  0
   30.0072    9.5267   20.0997 H   0  0  0  0  0  0  0  0  0  0  0  0
   29.7476    7.6687   21.7103 H   0  0  0  0  0  0  0  0  0  0  0  0
   28.4320    7.9951   23.7915 H   0  0  0  0  0  0  0  0  0  0  0  0
   27.3979   10.1965   24.2788 H   0  0  0  0  0  0  0  0  0  0  0  0
   26.9240   12.5217   22.0878 H   0  0  0  0  0  0  0  0  0  0  0  0
   30.8584   14.0469   15.0482 H   0  0  0  0  0  0  0  0  0  0  0  0
  1  2  2  0  0  0  0
  1  6  1  0  0  0  0
  1  7  1  0  0  0  0
  2  3  1  0  0  0  0
  2 20  1  0  0  0  0
  3  4  2  0  0  0  0
  3 21  1  0  0  0  0
  4  5  1  0  0  0  0
  4 10  1  0  0  0  0
  5  6  2  0  0  0  0
  5 11  1  0  0  0  0
  6 22  1  0  0  0  0
  7  8  2  0  0  0  0
  7  9  1  0  0  0  0
  8 23  1  0  0  0  0
  8 32  1  0  0  0  0
  9 24  1  0  0  0  0
  9 25  1  0  0  0  0
 10 12  2  0  0  0  0
 10 26  1  0  0  0  0
 11 12  1  0  0  0  0
 12 13  1  0  0  0  0
 13 14  2  0  0  0  0
 13 18  1  0  0  0  0
 14 15  1  0  0  0  0
 14 27  1  0  0  0  0
 15 16  2  0  0  0  0
 15 28  1  0  0  0  0
 16 17  1  0  0  0  0
 16 29  1  0  0  0  0
 17 18  2  0  0  0  0
 17 30  1  0  0  0  0
 18 19  1  0  0  0  0
 19 31  1  0  0  0  0
M  CHG  1  10   1
M  END
$$$$
