BNZ
 OpenBabel04041915243D

 12 12  0  0  0  0  0  0  0  0999 V2000
   27.3811    5.8827    2.9246 C   0  0  0  0  0  0  0  0  0  0  0  0
   26.4061    5.0762    3.5110 C   0  0  0  0  0  0  0  0  0  0  0  0
   27.8957    6.9746    3.6247 C   0  0  0  0  0  0  0  0  0  0  0  0
   25.9596    5.3462    4.8043 C   0  0  0  0  0  0  0  0  0  0  0  0
   27.4490    7.2439    4.9191 C   0  0  0  0  0  0  0  0  0  0  0  0
   26.4910    6.4235    5.5132 C   0  0  0  0  0  0  0  0  0  0  0  0
   27.7380    5.6634    1.9233 H   0  0  0  0  0  0  0  0  0  0  0  0
   25.9931    4.2355    2.9586 H   0  0  0  0  0  0  0  0  0  0  0  0
   28.6435    7.6132    3.1634 H   0  0  0  0  0  0  0  0  0  0  0  0
   25.2006    4.7170    5.2603 H   0  0  0  0  0  0  0  0  0  0  0  0
   27.8517    8.0944    5.4666 H   0  0  0  0  0  0  0  0  0  0  0  0
   26.1549    6.6258    6.5269 H   0  0  0  0  0  0  0  0  0  0  0  0
  1  2  2  0  0  0  0
  1  3  1  0  0  0  0
  1  7  1  0  0  0  0
  2  4  1  0  0  0  0
  2  8  1  0  0  0  0
  3  5  2  0  0  0  0
  3  9  1  0  0  0  0
  4  6  2  0  0  0  0
  4 10  1  0  0  0  0
  5  6  1  0  0  0  0
  5 11  1  0  0  0  0
  6 12  1  0  0  0  0
M  END
$$$$
