BPO
 OpenBabel04041914253D

 64 67  0  0  1  0  0  0  0  0999 V2000
   12.5937  -12.8009   24.1449 C   0  0  0  0  0  0  0  0  0  0  0  0
   12.8363   -3.8349   24.2589 C   0  0  0  0  0  0  0  0  0  0  0  0
   12.1255   -2.9347   29.2656 N   0  0  0  0  0  0  0  0  0  0  0  0
   13.1559   -3.0213   26.5159 C   0  0  0  0  0  0  0  0  0  0  0  0
    8.6998   -6.2361   22.9200 C   0  0  1  0  0  0  0  0  0  0  0  0
    8.1430   -7.5853   23.4698 C   0  0  0  0  0  0  0  0  0  0  0  0
   11.5846   -4.3513   24.6099 C   0  0  0  0  0  0  0  0  0  0  0  0
   11.1339   -4.1943   25.9286 C   0  0  0  0  0  0  0  0  0  0  0  0
   11.8915   -3.5039   26.9011 C   0  0  0  0  0  0  0  0  0  0  0  0
    7.3369   -4.0796   23.1945 C   0  0  0  0  0  0  0  0  0  0  0  0
    7.5951   -5.2818   22.5226 C   0  0  0  0  0  0  0  0  0  0  0  0
   11.3428   -3.2786   28.2644 C   0  0  0  0  0  0  0  0  0  0  0  0
   10.7497   -4.9863   23.5442 C   0  0  0  0  0  0  0  0  0  0  0  0
    6.3376   -3.2226   22.7419 C   0  0  0  0  0  0  0  0  0  0  0  0
    9.5517  -11.0775   24.1453 C   0  0  0  0  0  0  0  0  0  0  0  0
    8.6236   -9.8620   24.1815 C   0  0  0  0  0  0  0  0  0  0  0  0
    5.8223   -4.7590   20.9495 C   0  0  0  0  0  0  0  0  0  0  0  0
    5.5811   -3.5638   21.6222 C   0  0  0  0  0  0  0  0  0  0  0  0
    6.8234   -5.6124   21.3959 C   0  0  0  0  0  0  0  0  0  0  0  0
   10.9916  -10.7930   23.7299 C   0  0  1  0  0  0  0  0  0  0  0  0
   11.6466  -12.0831   23.2619 C   0  0  0  0  0  0  0  0  0  0  0  0
   11.0350   -9.8408   22.5476 C   0  0  0  0  0  0  0  0  0  0  0  0
   13.6255   -3.1894   25.2095 C   0  0  0  0  0  0  0  0  0  0  0  0
    7.0938   -7.6357   24.1188 O   0  0  0  0  0  0  0  0  0  0  0  0
   11.0909   -4.8704   22.3731 O   0  0  0  0  0  0  0  0  0  0  0  0
    9.6178   -5.6795   23.9240 N   0  0  0  0  0  0  0  0  0  0  0  0
   10.0500   -3.4118   28.4939 N   0  0  0  0  0  0  0  0  0  0  0  0
    8.9774   -8.7120   23.3498 N   0  0  0  0  0  0  0  0  0  0  0  0
   11.4148  -12.5404   22.1501 O   0  0  0  0  0  0  0  0  0  0  0  0
   10.3457   -8.5516   22.8855 C   0  0  0  0  0  0  0  0  0  0  0  0
   13.4208  -13.7546   23.5379 C   0  0  0  0  0  0  0  0  0  0  0  0
   14.3141  -14.4962   24.3032 C   0  0  0  0  0  0  0  0  0  0  0  0
   14.3845  -14.2848   25.6775 C   0  0  0  0  0  0  0  0  0  0  0  0
   13.5670  -13.3308   26.2850 C   0  0  0  0  0  0  0  0  0  0  0  0
   12.6672  -12.5852   25.5216 C   0  0  0  0  0  0  0  0  0  0  0  0
   13.2011   -3.9219   23.2347 H   0  0  0  0  0  0  0  0  0  0  0  0
   11.7700   -2.7857   30.2008 H   0  0  0  0  0  0  0  0  0  0  0  0
   13.1236   -2.8133   29.1446 H   0  0  0  0  0  0  0  0  0  0  0  0
   13.8018   -2.4773   27.2008 H   0  0  0  0  0  0  0  0  0  0  0  0
    9.2577   -6.4012   21.9968 H   0  0  0  0  0  0  0  0  0  0  0  0
   10.1663   -4.5986   26.1927 H   0  0  0  0  0  0  0  0  0  0  0  0
    7.9198   -3.7873   24.0606 H   0  0  0  0  0  0  0  0  0  0  0  0
    6.1491   -2.2849   23.2575 H   0  0  0  0  0  0  0  0  0  0  0  0
    9.1117  -11.8289   23.4766 H   0  0  0  0  0  0  0  0  0  0  0  0
    9.5468  -11.5479   25.1378 H   0  0  0  0  0  0  0  0  0  0  0  0
    8.5453   -9.5030   25.2158 H   0  0  0  0  0  0  0  0  0  0  0  0
    7.6101  -10.1812   23.8988 H   0  0  0  0  0  0  0  0  0  0  0  0
    5.2373   -5.0244   20.0735 H   0  0  0  0  0  0  0  0  0  0  0  0
    4.8034   -2.8954   21.2677 H   0  0  0  0  0  0  0  0  0  0  0  0
    7.0079   -6.5399   20.8530 H   0  0  0  0  0  0  0  0  0  0  0  0
   11.5450  -10.3337   24.5516 H   0  0  0  0  0  0  0  0  0  0  0  0
   12.0736   -9.6240   22.2684 H   0  0  0  0  0  0  0  0  0  0  0  0
   10.5530  -10.2773   21.6624 H   0  0  0  0  0  0  0  0  0  0  0  0
   14.5997   -2.7950   24.9197 H   0  0  0  0  0  0  0  0  0  0  0  0
    9.3705   -5.8693   24.8803 H   0  0  0  0  0  0  0  0  0  0  0  0
    9.6408   -3.2589   29.4058 H   0  0  0  0  0  0  0  0  0  0  0  0
   10.8969   -8.0114   23.6620 H   0  0  0  0  0  0  0  0  0  0  0  0
   10.3563   -7.9518   21.9739 H   0  0  0  0  0  0  0  0  0  0  0  0
   13.3666  -13.9273   22.4637 H   0  0  0  0  0  0  0  0  0  0  0  0
   14.9436  -15.2422   23.8242 H   0  0  0  0  0  0  0  0  0  0  0  0
   15.0741  -14.8743   26.2767 H   0  0  0  0  0  0  0  0  0  0  0  0
   13.6252  -13.1806   27.3604 H   0  0  0  0  0  0  0  0  0  0  0  0
   12.0270  -11.8728   26.0306 H   0  0  0  0  0  0  0  0  0  0  0  0
    9.3927   -3.6331   27.7571 H   0  0  0  0  0  0  0  0  0  0  0  0
  1 21  1  0  0  0  0
  1 31  2  0  0  0  0
  1 35  1  0  0  0  0
  2  7  2  0  0  0  0
  2 23  1  0  0  0  0
  2 36  1  0  0  0  0
  3 12  1  0  0  0  0
  3 37  1  0  0  0  0
  3 38  1  0  0  0  0
  4 23  2  0  0  0  0
  4  9  1  0  0  0  0
  4 39  1  0  0  0  0
  5  6  1  0  0  0  0
  5 11  1  0  0  0  0
  5 26  1  0  0  0  0
  5 40  1  6  0  0  0
  6 28  1  0  0  0  0
  6 24  2  0  0  0  0
  7  8  1  0  0  0  0
  7 13  1  0  0  0  0
  8  9  2  0  0  0  0
  8 41  1  0  0  0  0
  9 12  1  0  0  0  0
 10 11  2  0  0  0  0
 10 14  1  0  0  0  0
 10 42  1  0  0  0  0
 11 19  1  0  0  0  0
 12 27  2  0  0  0  0
 13 26  1  0  0  0  0
 13 25  2  0  0  0  0
 14 18  2  0  0  0  0
 14 43  1  0  0  0  0
 15 16  1  0  0  0  0
 15 20  1  0  0  0  0
 15 44  1  0  0  0  0
 15 45  1  0  0  0  0
 16 28  1  0  0  0  0
 16 46  1  0  0  0  0
 16 47  1  0  0  0  0
 17 19  2  0  0  0  0
 17 18  1  0  0  0  0
 17 48  1  0  0  0  0
 18 49  1  0  0  0  0
 19 50  1  0  0  0  0
 20 22  1  0  0  0  0
 20 21  1  0  0  0  0
 20 51  1  1  0  0  0
 21 29  2  0  0  0  0
 22 30  1  0  0  0  0
 22 52  1  0  0  0  0
 22 53  1  0  0  0  0
 23 54  1  0  0  0  0
 26 55  1  0  0  0  0
 27 56  1  0  0  0  0
 27 64  1  0  0  0  0
 28 30  1  0  0  0  0
 30 57  1  0  0  0  0
 30 58  1  0  0  0  0
 31 32  1  0  0  0  0
 31 59  1  0  0  0  0
 32 33  2  0  0  0  0
 32 60  1  0  0  0  0
 33 34  1  0  0  0  0
 33 61  1  0  0  0  0
 34 35  2  0  0  0  0
 34 62  1  0  0  0  0
 35 63  1  0  0  0  0
M  END
$$$$
