BPP
 OpenBabel04041914163D

 52 55  0  0  1  0  0  0  0  0999 V2000
  -23.9651  -31.8416   23.1566 C   0  0  2  0  0  0  0  0  0  0  0  0
  -23.2581  -33.0097   22.8129 C   0  0  0  0  0  0  0  0  0  0  0  0
  -22.2322  -32.9495   21.8353 C   0  0  1  0  0  0  0  0  0  0  0  0
  -21.9498  -31.7276   21.2310 C   0  0  2  0  0  0  0  0  0  0  0  0
  -22.6415  -30.5527   21.5396 C   0  0  0  0  0  0  0  0  0  0  0  0
  -23.6500  -30.6388   22.4935 C   0  0  0  0  0  0  0  0  0  0  0  0
  -21.3304  -33.9016   21.2719 C   0  0  0  0  0  0  0  0  0  0  0  0
  -20.5024  -33.2467   20.3707 C   0  0  2  0  0  0  0  0  0  0  0  0
  -20.9294  -31.9386   20.3355 N   0  3  0  0  0  0  0  0  0  0  0  0
  -24.9903  -31.8188   24.2185 C   0  0  0  0  0  0  0  0  0  0  0  0
  -25.1533  -30.7117   24.9053 N   0  0  0  0  0  0  0  0  0  0  0  0
  -25.7363  -32.8769   24.4770 N   0  0  0  0  0  0  0  0  0  0  0  0
  -19.4045  -33.7560   19.5489 C   0  0  0  0  0  0  0  0  0  0  0  0
  -19.6199  -34.3776   18.5232 O   0  0  0  0  0  0  0  0  0  0  0  0
  -18.1041  -33.4553   19.9891 N   0  0  0  0  0  0  0  0  0  0  0  0
  -16.9337  -34.0785   19.3536 C   0  0  0  0  0  0  0  0  0  0  0  0
  -16.4151  -35.2413   20.2252 C   0  0  0  0  0  0  0  0  0  0  0  0
  -16.1366  -34.7566   21.6737 C   0  0  1  0  0  0  0  0  0  0  0  0
  -17.3756  -34.0239   22.2301 C   0  0  0  0  0  0  0  0  0  0  0  0
  -17.8060  -32.9019   21.3012 C   0  0  0  0  0  0  0  0  0  0  0  0
  -15.7193  -35.8949   22.6299 C   0  0  0  0  0  0  0  0  0  0  0  0
  -15.2439  -35.3766   23.9804 C   0  0  0  0  0  0  0  0  0  0  0  0
  -16.1039  -35.3354   25.0923 C   0  0  0  0  0  0  0  0  0  0  0  0
  -15.6726  -34.8100   26.3166 C   0  0  0  0  0  0  0  0  0  0  0  0
  -14.3739  -34.3248   26.4475 C   0  0  0  0  0  0  0  0  0  0  0  0
  -13.5100  -34.3592   25.3553 C   0  0  0  0  0  0  0  0  0  0  0  0
  -13.9416  -34.8782   24.1295 C   0  0  0  0  0  0  0  0  0  0  0  0
  -23.4549  -33.9617   23.3054 H   0  0  0  0  0  0  0  0  0  0  0  0
  -22.4098  -29.6073   21.0537 H   0  0  0  0  0  0  0  0  0  0  0  0
  -24.1996  -29.7232   22.7091 H   0  0  0  0  0  0  0  0  0  0  0  0
  -21.2790  -34.9534   21.5217 H   0  0  0  0  0  0  0  0  0  0  0  0
  -20.5241  -31.2255   19.7435 H   0  0  0  0  0  0  0  0  0  0  0  0
  -25.8514  -30.5978   25.6252 H   0  0  0  0  0  0  0  0  0  0  0  0
  -24.5528  -29.9112   24.7240 H   0  0  0  0  0  0  0  0  0  0  0  0
  -26.4437  -32.8680   25.2039 H   0  0  0  0  0  0  0  0  0  0  0  0
  -16.1523  -33.3088   19.2756 H   0  0  0  0  0  0  0  0  0  0  0  0
  -17.1557  -34.4145   18.3355 H   0  0  0  0  0  0  0  0  0  0  0  0
  -15.5002  -35.6619   19.7852 H   0  0  0  0  0  0  0  0  0  0  0  0
  -17.1652  -36.0408   20.2310 H   0  0  0  0  0  0  0  0  0  0  0  0
  -15.3064  -34.0388   21.6101 H   0  0  0  0  0  0  0  0  0  0  0  0
  -17.1629  -33.5949   23.2124 H   0  0  0  0  0  0  0  0  0  0  0  0
  -18.2021  -34.7366   22.3509 H   0  0  0  0  0  0  0  0  0  0  0  0
  -18.6551  -32.3703   21.7303 H   0  0  0  0  0  0  0  0  0  0  0  0
  -16.9961  -32.1734   21.1835 H   0  0  0  0  0  0  0  0  0  0  0  0
  -14.9146  -36.4894   22.1780 H   0  0  0  0  0  0  0  0  0  0  0  0
  -16.5580  -36.5882   22.7743 H   0  0  0  0  0  0  0  0  0  0  0  0
  -17.1256  -35.6990   25.0130 H   0  0  0  0  0  0  0  0  0  0  0  0
  -16.3457  -34.7807   27.1704 H   0  0  0  0  0  0  0  0  0  0  0  0
  -14.0323  -33.9239   27.3995 H   0  0  0  0  0  0  0  0  0  0  0  0
  -12.4951  -33.9833   25.4588 H   0  0  0  0  0  0  0  0  0  0  0  0
  -13.2485  -34.8892   23.2913 H   0  0  0  0  0  0  0  0  0  0  0  0
  -25.6528  -33.7171   23.9280 H   0  0  0  0  0  0  0  0  0  0  0  0
  1 10  1  1  0  0  0
  1  6  1  0  0  0  0
  1  2  1  0  0  0  0
  2 28  1  0  0  0  0
  3  2  1  1  0  0  0
  3  7  1  0  0  0  0
  3  4  1  0  0  0  0
  4  9  1  6  0  0  0
  4  5  1  0  0  0  0
  5  6  1  0  0  0  0
  5 29  1  0  0  0  0
  6 30  1  0  0  0  0
  7  8  1  0  0  0  0
  7 31  1  0  0  0  0
  8  9  1  0  0  0  0
  8 13  1  6  0  0  0
  9 32  1  0  0  0  0
 10 12  2  0  0  0  0
 10 11  1  0  0  0  0
 11 33  1  0  0  0  0
 11 34  1  0  0  0  0
 12 35  1  0  0  0  0
 12 52  1  0  0  0  0
 13 15  1  0  0  0  0
 13 14  2  0  0  0  0
 15 20  1  0  0  0  0
 15 16  1  0  0  0  0
 16 17  1  0  0  0  0
 16 36  1  0  0  0  0
 16 37  1  0  0  0  0
 17 18  1  0  0  0  0
 17 38  1  0  0  0  0
 17 39  1  0  0  0  0
 18 21  1  0  0  0  0
 18 19  1  0  0  0  0
 18 40  1  6  0  0  0
 19 20  1  0  0  0  0
 19 41  1  0  0  0  0
 19 42  1  0  0  0  0
 20 43  1  0  0  0  0
 20 44  1  0  0  0  0
 21 22  1  0  0  0  0
 21 45  1  0  0  0  0
 21 46  1  0  0  0  0
 22 27  1  0  0  0  0
 22 23  1  0  0  0  0
 23 24  1  0  0  0  0
 23 47  1  0  0  0  0
 24 25  1  0  0  0  0
 24 48  1  0  0  0  0
 25 26  1  0  0  0  0
 25 49  1  0  0  0  0
 26 27  1  0  0  0  0
 26 50  1  0  0  0  0
 27 51  1  0  0  0  0
M  CHG  1   9   1
M  END
$$$$
