BSB
 OpenBabel04041914453D

 34 35  0  0  0  0  0  0  0  0999 V2000
   -3.8122    3.4829   14.6652 C   0  0  0  0  0  0  0  0  0  0  0  0
   -4.2729    2.3536   15.3647 C   0  0  0  0  0  0  0  0  0  0  0  0
   -5.5644    2.3400   15.8955 C   0  0  0  0  0  0  0  0  0  0  0  0
   -6.3982    3.4494   15.7190 C   0  0  0  0  0  0  0  0  0  0  0  0
   -5.9306    4.5779   15.0264 C   0  0  0  0  0  0  0  0  0  0  0  0
   -4.6328    4.6092   14.4845 C   0  0  0  0  0  0  0  0  0  0  0  0
   -4.1804    5.8437   13.7433 C   0  0  0  0  0  0  0  0  0  0  0  0
   -4.9435    6.7867   13.5659 O   0  0  0  0  0  0  0  0  0  0  0  0
   -2.8808    5.8470   13.2572 N   0  0  0  0  0  0  0  0  0  0  0  0
   -2.2861    6.9808   12.5620 C   0  0  0  0  0  0  0  0  0  0  0  0
   -6.1160    0.9730   16.8874 S   0  0  0  0  0  0  0  0  0  0  0  0
   -5.4991   -0.4025   16.1562 N   0  0  0  0  0  0  0  0  0  0  0  0
   -7.5438    0.8740   16.7713 O   0  0  0  0  0  0  0  0  0  0  0  0
   -5.4482    1.0707   18.1665 O   0  0  0  0  0  0  0  0  0  0  0  0
   -1.4848    7.8980   13.4556 C   0  0  0  0  0  0  0  0  0  0  0  0
   -1.8358    8.0915   14.8012 C   0  0  0  0  0  0  0  0  0  0  0  0
   -1.1256    8.9812   15.6007 C   0  0  0  0  0  0  0  0  0  0  0  0
   -0.0641    9.7100   15.0755 C   0  0  0  0  0  0  0  0  0  0  0  0
    0.2941    9.5436   13.7391 C   0  0  0  0  0  0  0  0  0  0  0  0
   -0.4170    8.6418   12.9295 C   0  0  0  0  0  0  0  0  0  0  0  0
   -2.7985    3.4456   14.2895 H   0  0  0  0  0  0  0  0  0  0  0  0
   -3.5987    1.5132   15.5232 H   0  0  0  0  0  0  0  0  0  0  0  0
   -7.4009    3.4593   16.1480 H   0  0  0  0  0  0  0  0  0  0  0  0
   -6.5867    5.4426   14.9245 H   0  0  0  0  0  0  0  0  0  0  0  0
   -2.2390    5.1041   13.4832 H   0  0  0  0  0  0  0  0  0  0  0  0
   -3.0548    7.5475   12.0277 H   0  0  0  0  0  0  0  0  0  0  0  0
   -1.6099    6.5316   11.8174 H   0  0  0  0  0  0  0  0  0  0  0  0
   -5.9593   -1.2563   16.4755 H   0  0  0  0  0  0  0  0  0  0  0  0
   -5.2178   -0.3672   15.1814 H   0  0  0  0  0  0  0  0  0  0  0  0
   -2.6771    7.5596   15.2354 H   0  0  0  0  0  0  0  0  0  0  0  0
   -1.4196    9.1183   16.6433 H   0  0  0  0  0  0  0  0  0  0  0  0
    0.4763   10.4131   15.7021 H   0  0  0  0  0  0  0  0  0  0  0  0
    1.1116   10.1224   13.3228 H   0  0  0  0  0  0  0  0  0  0  0  0
   -0.1276    8.5469   11.8889 H   0  0  0  0  0  0  0  0  0  0  0  0
  1  6  2  0  0  0  0
  1  2  1  0  0  0  0
  1 21  1  0  0  0  0
  2  3  2  0  0  0  0
  2 22  1  0  0  0  0
  3 11  1  0  0  0  0
  3  4  1  0  0  0  0
  4  5  2  0  0  0  0
  4 23  1  0  0  0  0
  5  6  1  0  0  0  0
  5 24  1  0  0  0  0
  6  7  1  0  0  0  0
  7  9  1  0  0  0  0
  7  8  2  0  0  0  0
  9 10  1  0  0  0  0
  9 25  1  0  0  0  0
 10 15  1  0  0  0  0
 10 26  1  0  0  0  0
 10 27  1  0  0  0  0
 11 14  2  0  0  0  0
 11 13  2  0  0  0  0
 11 12  1  0  0  0  0
 12 28  1  0  0  0  0
 12 29  1  0  0  0  0
 15 20  2  0  0  0  0
 15 16  1  0  0  0  0
 16 17  2  0  0  0  0
 16 30  1  0  0  0  0
 17 18  1  0  0  0  0
 17 31  1  0  0  0  0
 18 19  2  0  0  0  0
 18 32  1  0  0  0  0
 19 20  1  0  0  0  0
 19 33  1  0  0  0  0
 20 34  1  0  0  0  0
M  END
$$$$
