BTN
 OpenBabel04041914183D

 31 32  0  0  1  0  0  0  0  0999 V2000
   32.6125   18.1616   14.0502 C   0  0  0  0  0  0  0  0  0  0  0  0
   33.4439   17.4113   13.4674 O   0  0  0  0  0  0  0  0  0  0  0  0
   32.4925   19.4181   13.9984 O   0  0  0  0  0  0  0  0  0  0  0  0
   31.5968   17.4612   14.9602 C   0  0  0  0  0  0  0  0  0  0  0  0
   31.2249   16.0416   14.5464 C   0  0  0  0  0  0  0  0  0  0  0  0
   30.5012   16.0210   13.1980 C   0  0  0  0  0  0  0  0  0  0  0  0
   30.0095   14.6116   12.8421 C   0  0  0  0  0  0  0  0  0  0  0  0
   29.2183   14.5861   11.5360 C   0  0  2  0  0  0  0  0  0  0  0  0
   27.5359   15.2666   11.6642 S   0  0  0  0  0  0  0  0  0  0  0  0
   27.1291   14.6395   10.0217 C   0  0  0  0  0  0  0  0  0  0  0  0
   27.7554   13.2495    9.9693 C   0  0  2  0  0  0  0  0  0  0  0  0
   26.8942   12.1983   10.4809 N   0  0  0  0  0  0  0  0  0  0  0  0
   27.4415   11.5510   11.5719 C   0  0  0  0  0  0  0  0  0  0  0  0
   26.9397   10.6298   12.1789 O   0  0  0  0  0  0  0  0  0  0  0  0
   28.6708   12.1292   11.8286 N   0  0  0  0  0  0  0  0  0  0  0  0
   28.9935   13.1966   10.9042 C   0  0  2  0  0  0  0  0  0  0  0  0
   30.6842   18.0682   15.0174 H   0  0  0  0  0  0  0  0  0  0  0  0
   32.0296   17.4321   15.9676 H   0  0  0  0  0  0  0  0  0  0  0  0
   30.5709   15.6134   15.3158 H   0  0  0  0  0  0  0  0  0  0  0  0
   32.1220   15.4128   14.5010 H   0  0  0  0  0  0  0  0  0  0  0  0
   31.1809   16.3765   12.4138 H   0  0  0  0  0  0  0  0  0  0  0  0
   29.6586   16.7202   13.2327 H   0  0  0  0  0  0  0  0  0  0  0  0
   29.4062   14.2158   13.6669 H   0  0  0  0  0  0  0  0  0  0  0  0
   30.8874   13.9621   12.7357 H   0  0  0  0  0  0  0  0  0  0  0  0
   29.7454   15.2011   10.7968 H   0  0  0  0  0  0  0  0  0  0  0  0
   27.6247   15.2947    9.2974 H   0  0  0  0  0  0  0  0  0  0  0  0
   26.0550   14.6446    9.8311 H   0  0  0  0  0  0  0  0  0  0  0  0
   28.0084   12.9867    8.9362 H   0  0  0  0  0  0  0  0  0  0  0  0
   25.9809   11.9367   10.1314 H   0  0  0  0  0  0  0  0  0  0  0  0
   29.2458   11.8123   12.5924 H   0  0  0  0  0  0  0  0  0  0  0  0
   29.8865   12.8959   10.3439 H   0  0  0  0  0  0  0  0  0  0  0  0
  1  4  1  0  0  0  0
  1  3  2  0  0  0  0
  1  2  1  0  0  0  0
  4  5  1  0  0  0  0
  4 17  1  0  0  0  0
  4 18  1  0  0  0  0
  5  6  1  0  0  0  0
  5 19  1  0  0  0  0
  5 20  1  0  0  0  0
  6  7  1  0  0  0  0
  6 21  1  0  0  0  0
  6 22  1  0  0  0  0
  7  8  1  0  0  0  0
  7 23  1  0  0  0  0
  7 24  1  0  0  0  0
  8 16  1  0  0  0  0
  8  9  1  0  0  0  0
  8 25  1  6  0  0  0
  9 10  1  0  0  0  0
 10 11  1  0  0  0  0
 10 26  1  0  0  0  0
 10 27  1  0  0  0  0
 11 16  1  0  0  0  0
 11 12  1  0  0  0  0
 11 28  1  6  0  0  0
 12 13  1  0  0  0  0
 12 29  1  0  0  0  0
 13 15  1  0  0  0  0
 13 14  2  0  0  0  0
 15 16  1  0  0  0  0
 15 30  1  0  0  0  0
 16 31  1  6  0  0  0
M  END
$$$$
