BZC
 OpenBabel04041914273D

 33 35  0  0  0  0  0  0  0  0999 V2000
   40.6484   22.6591   21.8250 C   0  0  0  0  0  0  0  0  0  0  0  0
   39.9219   22.8759   20.6706 N   0  0  0  0  0  0  0  0  0  0  0  0
   38.6901   22.4489   20.9037 C   0  0  0  0  0  0  0  0  0  0  0  0
   38.6095   21.9555   22.1888 N   0  3  0  0  0  0  0  0  0  0  0  0
   39.8428   22.0688   22.7935 C   0  0  0  0  0  0  0  0  0  0  0  0
   40.3192   21.7183   24.0608 C   0  0  0  0  0  0  0  0  0  0  0  0
   42.0001   22.9354   22.1185 C   0  0  0  0  0  0  0  0  0  0  0  0
   37.6022   22.4931   19.9136 C   0  0  0  0  0  0  0  0  0  0  0  0
   42.4945   22.5894   23.3873 C   0  0  0  0  0  0  0  0  0  0  0  0
   41.6672   21.9897   24.3390 C   0  0  0  0  0  0  0  0  0  0  0  0
   42.9069   23.5807   21.1404 C   0  0  0  0  0  0  0  0  0  0  0  0
   42.3829   23.9377   19.9326 N   0  0  0  0  0  0  0  0  0  0  0  0
   44.0847   23.7973   21.4052 O   0  0  0  0  0  0  0  0  0  0  0  0
   37.9474   22.5727   18.5491 C   0  0  0  0  0  0  0  0  0  0  0  0
   36.2447   22.5102   20.2597 C   0  0  0  0  0  0  0  0  0  0  0  0
   36.9766   22.6765   17.5516 C   0  0  0  0  0  0  0  0  0  0  0  0
   37.2205   22.7753   16.2087 O   0  0  0  0  0  0  0  0  0  0  0  0
   35.6335   22.7237   17.9204 C   0  0  0  0  0  0  0  0  0  0  0  0
   35.2659   22.6329   19.2644 C   0  0  0  0  0  0  0  0  0  0  0  0
   38.5104   22.3671   15.7602 C   0  0  0  0  0  0  0  0  0  0  0  0
   37.7875   21.5508   22.6097 H   0  0  0  0  0  0  0  0  0  0  0  0
   39.6847   21.2524   24.8109 H   0  0  0  0  0  0  0  0  0  0  0  0
   43.5370   22.7930   23.6314 H   0  0  0  0  0  0  0  0  0  0  0  0
   42.0830   21.7329   25.3119 H   0  0  0  0  0  0  0  0  0  0  0  0
   42.9738   24.4087   19.2637 H   0  0  0  0  0  0  0  0  0  0  0  0
   41.4000   23.7812   19.7193 H   0  0  0  0  0  0  0  0  0  0  0  0
   39.0029   22.5737   18.2930 H   0  0  0  0  0  0  0  0  0  0  0  0
   35.9223   22.4693   21.2958 H   0  0  0  0  0  0  0  0  0  0  0  0
   34.8676   22.8326   17.1538 H   0  0  0  0  0  0  0  0  0  0  0  0
   34.2126   22.6726   19.5339 H   0  0  0  0  0  0  0  0  0  0  0  0
   38.5393   22.4783   14.6713 H   0  0  0  0  0  0  0  0  0  0  0  0
   38.6872   21.3117   15.9931 H   0  0  0  0  0  0  0  0  0  0  0  0
   39.3034   23.0006   16.1697 H   0  0  0  0  0  0  0  0  0  0  0  0
  1  7  2  0  0  0  0
  1  5  1  0  0  0  0
  1  2  1  0  0  0  0
  2  3  1  0  0  0  0
  3  8  1  0  0  0  0
  3  4  2  0  0  0  0
  4  5  1  0  0  0  0
  4 21  1  0  0  0  0
  5  6  2  0  0  0  0
  6 10  1  0  0  0  0
  6 22  1  0  0  0  0
  7  9  1  0  0  0  0
  7 11  1  0  0  0  0
  8 15  2  0  0  0  0
  8 14  1  0  0  0  0
  9 10  2  0  0  0  0
  9 23  1  0  0  0  0
 10 24  1  0  0  0  0
 11 13  2  0  0  0  0
 11 12  1  0  0  0  0
 12 25  1  0  0  0  0
 12 26  1  0  0  0  0
 14 16  2  0  0  0  0
 14 27  1  0  0  0  0
 15 19  1  0  0  0  0
 15 28  1  0  0  0  0
 16 18  1  0  0  0  0
 16 17  1  0  0  0  0
 17 20  1  0  0  0  0
 18 19  2  0  0  0  0
 18 29  1  0  0  0  0
 19 30  1  0  0  0  0
 20 31  1  0  0  0  0
 20 32  1  0  0  0  0
 20 33  1  0  0  0  0
M  CHG  1   4   1
M  END
$$$$
