BZS
 OpenBabel04041914113D

 25 25  0  0  1  0  0  0  0  0999 V2000
   -3.1815   29.2574   -6.1330 C   0  0  0  0  0  0  0  0  0  0  0  0
   -2.8810   30.4154   -7.0897 C   0  0  0  0  0  0  0  0  0  0  0  0
   -2.3494   29.9147   -8.4396 C   0  0  2  0  0  0  0  0  0  0  0  0
   -0.8528   29.5307   -8.3738 C   0  0  0  0  0  0  0  0  0  0  0  0
   -2.4546   31.0195   -9.5093 C   0  0  0  0  0  0  0  0  0  0  0  0
   -2.3914   30.4574  -10.9164 C   0  0  0  0  0  0  0  0  0  0  0  0
   -1.1507   30.2497  -11.5311 C   0  0  0  0  0  0  0  0  0  0  0  0
   -3.5559   30.0338  -11.5694 C   0  0  0  0  0  0  0  0  0  0  0  0
   -1.0705   29.6243  -12.7740 C   0  0  0  0  0  0  0  0  0  0  0  0
   -3.4755   29.4122  -12.8153 C   0  0  0  0  0  0  0  0  0  0  0  0
   -2.2342   29.2097  -13.4191 C   0  0  0  0  0  0  0  0  0  0  0  0
   -2.2122   28.7747   -5.4879 O   0  0  0  0  0  0  0  0  0  0  0  0
   -4.4132   28.9720   -6.0301 O   0  0  0  0  0  0  0  0  0  0  0  0
   -0.5566   28.3969   -8.8534 O   0  0  0  0  0  0  0  0  0  0  0  0
   -0.0563   30.4569   -8.0182 O   0  0  0  0  0  0  0  0  0  0  0  0
   -2.1837   31.1096   -6.6070 H   0  0  0  0  0  0  0  0  0  0  0  0
   -3.8152   30.9736   -7.2383 H   0  0  0  0  0  0  0  0  0  0  0  0
   -2.9425   29.0432   -8.7491 H   0  0  0  0  0  0  0  0  0  0  0  0
   -1.6805   31.7919   -9.3920 H   0  0  0  0  0  0  0  0  0  0  0  0
   -3.4054   31.5609   -9.4112 H   0  0  0  0  0  0  0  0  0  0  0  0
   -0.2374   30.5020  -10.9918 H   0  0  0  0  0  0  0  0  0  0  0  0
   -4.5178   30.1401  -11.0737 H   0  0  0  0  0  0  0  0  0  0  0  0
   -0.0936   29.4174  -13.1995 H   0  0  0  0  0  0  0  0  0  0  0  0
   -4.3795   29.0459  -13.2906 H   0  0  0  0  0  0  0  0  0  0  0  0
   -2.1671   28.6909  -14.3686 H   0  0  0  0  0  0  0  0  0  0  0  0
  1  2  1  0  0  0  0
  1 12  2  0  0  0  0
  1 13  1  0  0  0  0
  2  3  1  0  0  0  0
  2 16  1  0  0  0  0
  2 17  1  0  0  0  0
  3  4  1  0  0  0  0
  3  5  1  0  0  0  0
  3 18  1  6  0  0  0
  4 14  2  0  0  0  0
  4 15  1  0  0  0  0
  5  6  1  0  0  0  0
  5 19  1  0  0  0  0
  5 20  1  0  0  0  0
  6  7  2  0  0  0  0
  6  8  1  0  0  0  0
  7  9  1  0  0  0  0
  7 21  1  0  0  0  0
  8 10  2  0  0  0  0
  8 22  1  0  0  0  0
  9 11  2  0  0  0  0
  9 23  1  0  0  0  0
 10 11  1  0  0  0  0
 10 24  1  0  0  0  0
 11 25  1  0  0  0  0
M  END
$$$$
