BZT
 OpenBabel04041914153D

 75 80  0  0  0  0  0  0  0  0999 V2000
  -23.9363  -30.5456   24.1034 C   0  0  0  0  0  0  0  0  0  0  0  0
  -24.2620  -31.5586   23.2063 C   0  0  0  0  0  0  0  0  0  0  0  0
  -23.3255  -31.9203   22.2158 C   0  0  0  0  0  0  0  0  0  0  0  0
  -22.0693  -31.3150   22.1239 C   0  0  0  0  0  0  0  0  0  0  0  0
  -21.7915  -30.2672   23.0462 C   0  0  0  0  0  0  0  0  0  0  0  0
  -22.7193  -29.8880   24.0181 C   0  0  0  0  0  0  0  0  0  0  0  0
  -23.5296  -33.1044   20.9868 S   0  0  0  0  0  0  0  0  0  0  0  0
  -21.9571  -32.8740   20.3368 C   0  0  0  0  0  0  0  0  0  0  0  0
  -21.2498  -31.9123   21.0601 C   0  0  0  0  0  0  0  0  0  0  0  0
  -19.8299  -31.4806   20.7887 C   0  0  0  0  0  0  0  0  0  0  0  0
  -21.5291  -33.7051   19.1828 C   0  0  0  0  0  0  0  0  0  0  0  0
  -20.9475  -33.1426   18.0390 C   0  0  0  0  0  0  0  0  0  0  0  0
  -20.4509  -33.9552   16.9974 C   0  0  0  0  0  0  0  0  0  0  0  0
  -20.5437  -35.3479   17.0562 C   0  0  0  0  0  0  0  0  0  0  0  0
  -21.1777  -35.9147   18.1618 C   0  0  0  0  0  0  0  0  0  0  0  0
  -21.6582  -35.1017   19.2108 C   0  0  0  0  0  0  0  0  0  0  0  0
  -19.9734  -36.0449   16.0121 O   0  0  0  0  0  0  0  0  0  0  0  0
  -20.2383  -37.4563   15.9503 C   0  0  0  0  0  0  0  0  0  0  0  0
  -19.0899  -33.6368   22.0506 C   0  0  0  0  0  0  0  0  0  0  0  0
  -18.8225  -32.5346   21.2311 C   0  0  0  0  0  0  0  0  0  0  0  0
  -17.4892  -32.3546   20.8170 C   0  0  0  0  0  0  0  0  0  0  0  0
  -16.4667  -33.2433   21.1911 C   0  0  0  0  0  0  0  0  0  0  0  0
  -16.7399  -34.3540   21.9988 C   0  0  0  0  0  0  0  0  0  0  0  0
  -18.0742  -34.5367   22.4172 C   0  0  0  0  0  0  0  0  0  0  0  0
  -14.7177  -32.8453   20.5649 Br  0  0  0  0  0  0  0  0  0  0  0  0
  -15.6808  -35.3286   22.4695 C   0  0  0  0  0  0  0  0  0  0  0  0
  -14.2245  -35.6729   25.9299 C   0  0  0  0  0  0  0  0  0  0  0  0
  -14.4106  -34.1585   25.8112 C   0  0  0  0  0  0  0  0  0  0  0  0
  -14.6935  -33.8942   24.3425 C   0  0  0  0  0  0  0  0  0  0  0  0
  -15.3595  -35.1822   23.9274 N   0  3  0  0  0  0  0  0  0  0  0  0
  -14.4479  -36.2213   24.5266 C   0  0  0  0  0  0  0  0  0  0  0  0
  -17.3266  -38.0980   13.5985 C   0  0  0  0  0  0  0  0  0  0  0  0
  -18.2115  -38.4321   14.7772 N   0  3  0  0  0  0  0  0  0  0  0  0
  -17.9135  -39.9012   14.9835 C   0  0  0  0  0  0  0  0  0  0  0  0
  -16.3973  -39.9501   14.8721 C   0  0  0  0  0  0  0  0  0  0  0  0
  -16.0138  -38.7657   13.9850 C   0  0  0  0  0  0  0  0  0  0  0  0
  -19.6800  -38.0618   14.6372 C   0  0  0  0  0  0  0  0  0  0  0  0
  -24.7919  -30.1500   25.0924 O   0  0  0  0  0  0  0  0  0  0  0  0
  -25.2259  -32.0629   23.2637 H   0  0  0  0  0  0  0  0  0  0  0  0
  -20.8475  -29.7246   23.0038 H   0  0  0  0  0  0  0  0  0  0  0  0
  -22.4968  -29.0767   24.7103 H   0  0  0  0  0  0  0  0  0  0  0  0
  -19.5983  -30.5424   21.3038 H   0  0  0  0  0  0  0  0  0  0  0  0
  -19.7072  -31.2831   19.7189 H   0  0  0  0  0  0  0  0  0  0  0  0
  -20.8793  -32.0612   17.9349 H   0  0  0  0  0  0  0  0  0  0  0  0
  -19.9973  -33.4737   16.1319 H   0  0  0  0  0  0  0  0  0  0  0  0
  -21.3228  -36.9824   18.2614 H   0  0  0  0  0  0  0  0  0  0  0  0
  -22.1320  -35.5863   20.0634 H   0  0  0  0  0  0  0  0  0  0  0  0
  -21.3216  -37.6194   15.9608 H   0  0  0  0  0  0  0  0  0  0  0  0
  -19.7789  -37.9513   16.8141 H   0  0  0  0  0  0  0  0  0  0  0  0
  -20.0985  -33.8246   22.4207 H   0  0  0  0  0  0  0  0  0  0  0  0
  -17.2459  -31.4911   20.1952 H   0  0  0  0  0  0  0  0  0  0  0  0
  -18.3531  -35.3836   23.0397 H   0  0  0  0  0  0  0  0  0  0  0  0
  -14.7434  -35.2762   21.9119 H   0  0  0  0  0  0  0  0  0  0  0  0
  -16.0643  -36.3498   22.3415 H   0  0  0  0  0  0  0  0  0  0  0  0
  -14.9736  -36.0831   26.6155 H   0  0  0  0  0  0  0  0  0  0  0  0
  -13.2389  -35.9418   26.3243 H   0  0  0  0  0  0  0  0  0  0  0  0
  -15.2722  -33.8500   26.4151 H   0  0  0  0  0  0  0  0  0  0  0  0
  -13.5415  -33.5988   26.1703 H   0  0  0  0  0  0  0  0  0  0  0  0
  -15.3721  -33.0564   24.1692 H   0  0  0  0  0  0  0  0  0  0  0  0
  -13.7721  -33.7874   23.7592 H   0  0  0  0  0  0  0  0  0  0  0  0
  -13.5186  -36.2383   23.9441 H   0  0  0  0  0  0  0  0  0  0  0  0
  -14.9393  -37.1977   24.5040 H   0  0  0  0  0  0  0  0  0  0  0  0
  -17.2599  -37.0143   13.4942 H   0  0  0  0  0  0  0  0  0  0  0  0
  -17.7687  -38.5572   12.7043 H   0  0  0  0  0  0  0  0  0  0  0  0
  -18.3862  -40.4599   14.1643 H   0  0  0  0  0  0  0  0  0  0  0  0
  -18.3042  -40.2238   15.9501 H   0  0  0  0  0  0  0  0  0  0  0  0
  -15.9424  -39.8339   15.8646 H   0  0  0  0  0  0  0  0  0  0  0  0
  -16.0452  -40.9041   14.4654 H   0  0  0  0  0  0  0  0  0  0  0  0
  -15.3927  -38.0671   14.5590 H   0  0  0  0  0  0  0  0  0  0  0  0
  -15.4331  -39.0721   13.1093 H   0  0  0  0  0  0  0  0  0  0  0  0
  -19.7598  -37.3504   13.8100 H   0  0  0  0  0  0  0  0  0  0  0  0
  -20.2134  -38.9841   14.3858 H   0  0  0  0  0  0  0  0  0  0  0  0
  -25.6120  -30.6644   25.0362 H   0  0  0  0  0  0  0  0  0  0  0  0
  -16.2547  -35.2308   24.4273 H   0  0  0  0  0  0  0  0  0  0  0  0
  -17.8358  -37.9001   15.5745 H   0  0  0  0  0  0  0  0  0  0  0  0
  1 38  1  0  0  0  0
  1  6  2  0  0  0  0
  1  2  1  0  0  0  0
  2  3  2  0  0  0  0
  2 39  1  0  0  0  0
  3  7  1  0  0  0  0
  3  4  1  0  0  0  0
  4  9  1  0  0  0  0
  4  5  2  0  0  0  0
  5  6  1  0  0  0  0
  5 40  1  0  0  0  0
  6 41  1  0  0  0  0
  7  8  1  0  0  0  0
  8  9  2  0  0  0  0
  8 11  1  0  0  0  0
  9 10  1  0  0  0  0
 10 20  1  0  0  0  0
 10 42  1  0  0  0  0
 10 43  1  0  0  0  0
 11 16  2  0  0  0  0
 11 12  1  0  0  0  0
 12 13  2  0  0  0  0
 12 44  1  0  0  0  0
 13 14  1  0  0  0  0
 13 45  1  0  0  0  0
 14 17  1  0  0  0  0
 14 15  2  0  0  0  0
 15 16  1  0  0  0  0
 15 46  1  0  0  0  0
 16 47  1  0  0  0  0
 17 18  1  0  0  0  0
 18 37  1  0  0  0  0
 18 48  1  0  0  0  0
 18 49  1  0  0  0  0
 19 20  2  0  0  0  0
 19 24  1  0  0  0  0
 19 50  1  0  0  0  0
 20 21  1  0  0  0  0
 21 22  2  0  0  0  0
 21 51  1  0  0  0  0
 22 25  1  0  0  0  0
 22 23  1  0  0  0  0
 23 26  1  0  0  0  0
 23 24  2  0  0  0  0
 24 52  1  0  0  0  0
 26 30  1  0  0  0  0
 26 53  1  0  0  0  0
 26 54  1  0  0  0  0
 27 28  1  0  0  0  0
 27 31  1  0  0  0  0
 27 55  1  0  0  0  0
 27 56  1  0  0  0  0
 28 29  1  0  0  0  0
 28 57  1  0  0  0  0
 28 58  1  0  0  0  0
 29 30  1  0  0  0  0
 29 59  1  0  0  0  0
 29 60  1  0  0  0  0
 30 31  1  0  0  0  0
 30 74  1  0  0  0  0
 31 61  1  0  0  0  0
 31 62  1  0  0  0  0
 32 33  1  0  0  0  0
 32 36  1  0  0  0  0
 32 63  1  0  0  0  0
 32 64  1  0  0  0  0
 33 37  1  0  0  0  0
 33 34  1  0  0  0  0
 33 75  1  0  0  0  0
 34 35  1  0  0  0  0
 34 65  1  0  0  0  0
 34 66  1  0  0  0  0
 35 36  1  0  0  0  0
 35 67  1  0  0  0  0
 35 68  1  0  0  0  0
 36 69  1  0  0  0  0
 36 70  1  0  0  0  0
 37 71  1  0  0  0  0
 37 72  1  0  0  0  0
 38 73  1  0  0  0  0
M  CHG  2  30   1  33   1
M  END
$$$$
