C2P
 OpenBabel04041915123D

 33 34  0  0  1  0  0  0  0  0999 V2000
   36.2206    2.1175   24.7257 N   0  3  0  0  0  0  0  0  0  0  0  0
   35.0172    2.2867   25.3828 C   0  0  0  0  0  0  0  0  0  0  0  0
   34.4146    3.5214   25.2351 N   0  3  0  0  0  0  0  0  0  0  0  0
   34.8750    4.5273   24.4453 C   0  0  0  0  0  0  0  0  0  0  0  0
   36.1078    4.2527   23.7031 C   0  0  0  0  0  0  0  0  0  0  0  0
   36.7063    3.1067   23.8825 C   0  0  0  0  0  0  0  0  0  0  0  0
   34.5159    1.4589   26.1382 O   0  0  0  0  0  0  0  0  0  0  0  0
   34.2104    5.6090   24.3986 N   0  0  0  0  0  0  0  0  0  0  0  0
   36.9290    0.8680   24.9152 C   0  0  1  0  0  0  0  0  0  0  0  0
   36.8062   -0.1577   23.7683 C   0  0  2  0  0  0  0  0  0  0  0  0
   36.8657   -1.4339   24.3977 O   0  0  0  0  0  0  0  0  0  0  0  0
   38.0574    0.2160   22.9726 C   0  0  1  0  0  0  0  0  0  0  0  0
   39.0584    0.4625   24.0801 C   0  0  2  0  0  0  0  0  0  0  0  0
   38.3381    1.1703   25.1147 O   0  0  0  0  0  0  0  0  0  0  0  0
   38.5952   -0.6249   21.9843 O   0  0  0  0  0  0  0  0  0  0  0  0
   40.2621    1.2928   23.6477 C   0  0  0  0  0  0  0  0  0  0  0  0
   39.8438    2.4201   22.8637 O   0  0  0  0  0  0  0  0  0  0  0  0
   36.5825   -2.8144   23.5732 P   0  0  0  0  0  0  0  0  0  0  0  0
   35.0644   -2.8659   23.4882 O   0  0  0  0  0  0  0  0  0  0  0  0
   37.2548   -3.8755   24.4280 O   0  0  0  0  0  0  0  0  0  0  0  0
   37.2249   -2.6125   22.2140 O   0  0  0  0  0  0  0  0  0  0  0  0
   33.5542    3.6748   25.7505 H   0  0  0  0  0  0  0  0  0  0  0  0
   36.4808    5.0246   23.0497 H   0  0  0  0  0  0  0  0  0  0  0  0
   37.6282    2.8984   23.3483 H   0  0  0  0  0  0  0  0  0  0  0  0
   34.5967    6.3109   23.7860 H   0  0  0  0  0  0  0  0  0  0  0  0
   36.5788    0.4066   25.8566 H   0  0  0  0  0  0  0  0  0  0  0  0
   35.8933   -0.0350   23.1783 H   0  0  0  0  0  0  0  0  0  0  0  0
   37.8624    1.1349   22.4139 H   0  0  0  0  0  0  0  0  0  0  0  0
   39.4332   -0.4882   24.4783 H   0  0  0  0  0  0  0  0  0  0  0  0
   37.8291   -0.9624   21.4680 H   0  0  0  0  0  0  0  0  0  0  0  0
   40.9573    0.6850   23.0584 H   0  0  0  0  0  0  0  0  0  0  0  0
   40.7832    1.6776   24.5328 H   0  0  0  0  0  0  0  0  0  0  0  0
   40.6288    2.9099   22.5962 H   0  0  0  0  0  0  0  0  0  0  0  0
  1  2  1  0  0  0  0
  1  6  1  0  0  0  0
  1  9  1  0  0  0  0
  2  3  1  0  0  0  0
  2  7  2  0  0  0  0
  3  4  1  0  0  0  0
  3 22  1  0  0  0  0
  4  5  1  0  0  0  0
  4  8  2  0  0  0  0
  5  6  2  0  0  0  0
  5 23  1  0  0  0  0
  6 24  1  0  0  0  0
  8 25  1  0  0  0  0
  9 10  1  0  0  0  0
  9 14  1  0  0  0  0
  9 26  1  1  0  0  0
 10 11  1  0  0  0  0
 10 12  1  0  0  0  0
 10 27  1  6  0  0  0
 11 18  1  0  0  0  0
 12 13  1  0  0  0  0
 12 15  1  0  0  0  0
 12 28  1  6  0  0  0
 13 14  1  0  0  0  0
 13 16  1  0  0  0  0
 13 29  1  1  0  0  0
 15 30  1  0  0  0  0
 16 17  1  0  0  0  0
 16 31  1  0  0  0  0
 16 32  1  0  0  0  0
 17 33  1  0  0  0  0
 18 19  2  0  0  0  0
 18 20  1  0  0  0  0
 18 21  1  0  0  0  0
M  CHG  2   1   1   3   1
M  END
$$$$
