CBN
 OpenBabel04041915243D

 85 89  0  0  1  0  0  0  0  0999 V2000
   18.8134   24.1135   36.3435 C   0  0  0  0  0  0  0  0  0  0  0  0
   18.8759   28.0508   34.5190 C   0  0  0  0  0  0  0  0  0  0  0  0
   19.7839   26.2531   33.2124 C   0  0  0  0  0  0  0  0  0  0  0  0
   20.0748   26.0794   35.7621 C   0  0  2  0  0  0  0  0  0  0  0  0
   20.5537   26.8706   37.0113 C   0  0  2  0  0  0  0  0  0  0  0  0
   21.9626   27.3994   36.7689 C   0  0  2  0  0  0  0  0  0  0  0  0
   21.9227   28.2881   35.4792 C   0  0  1  0  0  0  0  0  0  0  0  0
   20.0193   27.0324   34.5220 C   0  0  0  0  0  0  0  0  0  0  0  0
   21.0823   30.5418   34.9755 C   0  0  0  0  0  0  0  0  0  0  0  0
   20.1398   31.5425   35.3730 C   0  0  0  0  0  0  0  0  0  0  0  0
   19.9415   32.6817   34.5488 C   0  0  0  0  0  0  0  0  0  0  0  0
   18.9425   34.9327   34.3076 C   0  0  0  0  0  0  0  0  0  0  0  0
   19.6412   35.0955   33.0024 C   0  0  0  0  0  0  0  0  0  0  0  0
   20.4894   34.1436   32.5050 C   0  0  0  0  0  0  0  0  0  0  0  0
   20.6341   32.8569   33.3418 C   0  0  0  0  0  0  0  0  0  0  0  0
   21.5438   31.8170   32.9327 C   0  0  0  0  0  0  0  0  0  0  0  0
   21.7753   30.6774   33.7522 C   0  0  0  0  0  0  0  0  0  0  0  0
   18.0884   36.6417   31.8751 C   0  0  0  0  0  0  0  0  0  0  0  0
   16.9793   35.7129   31.4975 C   0  0  0  0  0  0  0  0  0  0  0  0
   17.2573   34.5187   30.7697 C   0  0  0  0  0  0  0  0  0  0  0  0
   16.1911   33.7195   30.2783 C   0  0  0  0  0  0  0  0  0  0  0  0
   14.8620   34.1559   30.5098 C   0  0  0  0  0  0  0  0  0  0  0  0
   14.5753   35.3325   31.2350 C   0  0  0  0  0  0  0  0  0  0  0  0
   15.6347   36.1041   31.7416 C   0  0  0  0  0  0  0  0  0  0  0  0
   16.4926   32.4052   29.5415 C   0  0  0  0  0  0  0  0  0  0  0  0
   16.2703   31.1551   30.3661 C   0  0  0  0  0  0  0  0  0  0  0  0
   17.1748   30.3176   30.8833 C   0  0  0  0  0  0  0  0  0  0  0  0
   16.7180   29.1528   31.7140 C   0  0  0  0  0  0  0  0  0  0  0  0
   18.6387   30.5326   30.7397 C   0  0  0  0  0  0  0  0  0  0  0  0
   19.3332   36.2383   32.2185 N   0  0  0  0  0  0  0  0  0  0  0  0
   18.7873   25.5113   36.0625 O   0  0  0  0  0  0  0  0  0  0  0  0
   20.5074   25.9875   38.1801 O   0  0  0  0  0  0  0  0  0  0  0  0
   21.2978   27.6665   34.3438 O   0  0  0  0  0  0  0  0  0  0  0  0
   21.2678   29.5067   35.8650 O   0  0  0  0  0  0  0  0  0  0  0  0
   21.0938   34.2151   31.4024 O   0  0  0  0  0  0  0  0  0  0  0  0
   19.0887   33.7334   35.0013 O   0  3  0  0  0  0  0  0  0  0  0  0
   18.1791   35.8283   34.7606 O   0  0  0  0  0  0  0  0  0  0  0  0
   17.8609   37.8896   31.7330 O   0  0  0  0  0  0  0  0  0  0  0  0
   13.8209   33.3886   30.0417 O   0  0  0  0  0  0  0  0  0  0  0  0
   19.5403   23.7567   41.6265 C   0  0  0  0  0  0  0  0  0  0  0  0
   19.5783   24.3248   40.3307 C   0  0  0  0  0  0  0  0  0  0  0  0
   20.0791   25.6208   40.4464 C   0  0  1  0  0  0  0  0  0  0  0  0
   20.2852   25.8745   41.8063 N   0  3  0  0  0  0  0  0  0  0  0  0
   19.8606   24.7692   42.5206 C   0  0  1  0  0  0  0  0  0  0  0  0
   19.6916   24.8499   43.9960 C   0  0  0  0  0  0  0  0  0  0  0  0
   20.3693   26.5821   39.4055 C   0  0  0  0  0  0  0  0  0  0  0  0
   20.5364   27.7892   39.6132 O   0  0  0  0  0  0  0  0  0  0  0  0
   22.8732   26.2774   36.6885 O   0  0  0  0  0  0  0  0  0  0  0  0
   19.2610   31.3970   36.8976 Cl  0  0  0  0  0  0  0  0  0  0  0  0
   17.7904   23.8032   36.5915 H   0  0  0  0  0  0  0  0  0  0  0  0
   19.4628   23.8749   37.1891 H   0  0  0  0  0  0  0  0  0  0  0  0
   19.1414   23.5593   35.4602 H   0  0  0  0  0  0  0  0  0  0  0  0
   18.9167   28.6647   33.6057 H   0  0  0  0  0  0  0  0  0  0  0  0
   18.9546   28.7240   35.3623 H   0  0  0  0  0  0  0  0  0  0  0  0
   17.8996   27.5526   34.5490 H   0  0  0  0  0  0  0  0  0  0  0  0
   19.7430   26.9502   32.3542 H   0  0  0  0  0  0  0  0  0  0  0  0
   18.8385   25.7025   33.2456 H   0  0  0  0  0  0  0  0  0  0  0  0
   20.6061   25.5579   33.0258 H   0  0  0  0  0  0  0  0  0  0  0  0
   20.8004   25.2793   35.5347 H   0  0  0  0  0  0  0  0  0  0  0  0
   19.8655   27.7105   37.1751 H   0  0  0  0  0  0  0  0  0  0  0  0
   22.2908   28.0147   37.6206 H   0  0  0  0  0  0  0  0  0  0  0  0
   22.9627   28.4924   35.1855 H   0  0  0  0  0  0  0  0  0  0  0  0
   22.0884   31.9280   31.9780 H   0  0  0  0  0  0  0  0  0  0  0  0
   22.4999   29.9357   33.4015 H   0  0  0  0  0  0  0  0  0  0  0  0
   18.2965   34.2165   30.5889 H   0  0  0  0  0  0  0  0  0  0  0  0
   13.5410   35.6457   31.4140 H   0  0  0  0  0  0  0  0  0  0  0  0
   15.4247   37.0101   32.3328 H   0  0  0  0  0  0  0  0  0  0  0  0
   17.5218   32.4476   29.1546 H   0  0  0  0  0  0  0  0  0  0  0  0
   15.8491   32.3511   28.6477 H   0  0  0  0  0  0  0  0  0  0  0  0
   15.2371   30.9016   30.5749 H   0  0  0  0  0  0  0  0  0  0  0  0
   17.5668   28.5561   32.0560 H   0  0  0  0  0  0  0  0  0  0  0  0
   16.0607   28.5123   31.1239 H   0  0  0  0  0  0  0  0  0  0  0  0
   16.1745   29.5295   32.5875 H   0  0  0  0  0  0  0  0  0  0  0  0
   18.8112   31.3969   30.1081 H   0  0  0  0  0  0  0  0  0  0  0  0
   19.1103   29.6651   30.2768 H   0  0  0  0  0  0  0  0  0  0  0  0
   19.0784   30.7251   31.7172 H   0  0  0  0  0  0  0  0  0  0  0  0
   20.0874   36.7977   31.8464 H   0  0  0  0  0  0  0  0  0  0  0  0
   12.9765   33.8075   30.2787 H   0  0  0  0  0  0  0  0  0  0  0  0
   19.2207   22.7258   41.8077 H   0  0  0  0  0  0  0  0  0  0  0  0
   19.2922   23.7924   39.4227 H   0  0  0  0  0  0  0  0  0  0  0  0
   20.6611   26.7394   42.2138 H   0  0  0  0  0  0  0  0  0  0  0  0
   19.3715   23.8924   44.4274 H   0  0  0  0  0  0  0  0  0  0  0  0
   18.9081   25.5952   44.2028 H   0  0  0  0  0  0  0  0  0  0  0  0
   20.6135   25.1772   44.4873 H   0  0  0  0  0  0  0  0  0  0  0  0
   22.7937   25.7805   37.5277 H   0  0  0  0  0  0  0  0  0  0  0  0
  1 31  1  0  0  0  0
  1 50  1  0  0  0  0
  1 51  1  0  0  0  0
  1 52  1  0  0  0  0
  2  8  1  0  0  0  0
  2 53  1  0  0  0  0
  2 54  1  0  0  0  0
  2 55  1  0  0  0  0
  3  8  1  0  0  0  0
  3 56  1  0  0  0  0
  3 57  1  0  0  0  0
  3 58  1  0  0  0  0
  4 31  1  0  0  0  0
  4  8  1  0  0  0  0
  4  5  1  0  0  0  0
  4 59  1  6  0  0  0
  5 32  1  0  0  0  0
  5  6  1  0  0  0  0
  5 60  1  1  0  0  0
  6 48  1  0  0  0  0
  6  7  1  0  0  0  0
  6 61  1  1  0  0  0
  7 34  1  0  0  0  0
  7 33  1  0  0  0  0
  7 62  1  6  0  0  0
  8 33  1  0  0  0  0
  9 34  1  0  0  0  0
  9 10  2  0  0  0  0
  9 17  1  0  0  0  0
 10 11  1  0  0  0  0
 10 49  1  0  0  0  0
 11 15  2  0  0  0  0
 11 36  1  0  0  0  0
 12 36  1  0  0  0  0
 12 37  2  0  0  0  0
 12 13  1  0  0  0  0
 13 30  1  0  0  0  0
 13 14  2  0  0  0  0
 14 15  1  0  0  0  0
 14 35  1  0  0  0  0
 15 16  1  0  0  0  0
 16 17  2  0  0  0  0
 16 63  1  0  0  0  0
 17 64  1  0  0  0  0
 18 30  1  0  0  0  0
 18 38  2  0  0  0  0
 18 19  1  0  0  0  0
 19 24  2  0  0  0  0
 19 20  1  0  0  0  0
 20 21  2  0  0  0  0
 20 65  1  0  0  0  0
 21 25  1  0  0  0  0
 21 22  1  0  0  0  0
 22 39  1  0  0  0  0
 22 23  2  0  0  0  0
 23 24  1  0  0  0  0
 23 66  1  0  0  0  0
 24 67  1  0  0  0  0
 25 26  1  0  0  0  0
 25 68  1  0  0  0  0
 25 69  1  0  0  0  0
 26 27  2  0  0  0  0
 26 70  1  0  0  0  0
 27 29  1  0  0  0  0
 27 28  1  0  0  0  0
 28 71  1  0  0  0  0
 28 72  1  0  0  0  0
 28 73  1  0  0  0  0
 29 74  1  0  0  0  0
 29 75  1  0  0  0  0
 29 76  1  0  0  0  0
 30 77  1  0  0  0  0
 32 46  1  0  0  0  0
 39 78  1  0  0  0  0
 40 41  1  0  0  0  0
 40 44  1  0  0  0  0
 40 79  1  0  0  0  0
 41 42  1  0  0  0  0
 41 80  1  0  0  0  0
 42 46  1  6  0  0  0
 42 43  1  0  0  0  0
 43 44  1  0  0  0  0
 43 81  1  0  0  0  0
 44 45  1  6  0  0  0
 45 82  1  0  0  0  0
 45 83  1  0  0  0  0
 45 84  1  0  0  0  0
 46 47  2  0  0  0  0
 48 85  1  0  0  0  0
M  CHG  2  36   1  43   1
M  END
$$$$
