CCE
 OpenBabel04041917123D

 25 24  0  0  0  0  0  0  0  0999 V2000
  138.2368  125.0324   87.5724 N   0  3  0  0  0  0  0  0  0  0  0  0
  138.5190  124.8099   86.0893 C   0  0  0  0  0  0  0  0  0  0  0  0
  138.5159  123.3420   85.6756 C   0  0  0  0  0  0  0  0  0  0  0  0
  138.7814  123.2237   84.2694 O   0  0  0  0  0  0  0  0  0  0  0  0
  138.0090  122.5539   83.3774 C   0  0  0  0  0  0  0  0  0  0  0  0
  138.3339  122.4670   82.1869 O   0  0  0  0  0  0  0  0  0  0  0  0
  137.0103  124.2834   88.0360 C   0  0  0  0  0  0  0  0  0  0  0  0
  139.4500  124.6292   88.3881 C   0  0  0  0  0  0  0  0  0  0  0  0
  137.9657  126.5129   87.7646 C   0  0  0  0  0  0  0  0  0  0  0  0
  136.8557  121.9868   83.8034 N   0  0  0  0  0  0  0  0  0  0  0  0
  139.4934  125.2689   85.8903 H   0  0  0  0  0  0  0  0  0  0  0  0
  137.7431  125.3533   85.5427 H   0  0  0  0  0  0  0  0  0  0  0  0
  137.5474  122.9183   85.8958 H   0  0  0  0  0  0  0  0  0  0  0  0
  139.2779  122.8016   86.2467 H   0  0  0  0  0  0  0  0  0  0  0  0
  136.8689  124.4839   89.0985 H   0  0  0  0  0  0  0  0  0  0  0  0
  137.1736  123.2183   87.8754 H   0  0  0  0  0  0  0  0  0  0  0  0
  136.1572  124.6379   87.4535 H   0  0  0  0  0  0  0  0  0  0  0  0
  140.3117  125.1916   88.0213 H   0  0  0  0  0  0  0  0  0  0  0  0
  139.6084  123.5579   88.2600 H   0  0  0  0  0  0  0  0  0  0  0  0
  139.2523  124.8637   89.4349 H   0  0  0  0  0  0  0  0  0  0  0  0
  137.0885  126.7710   87.1665 H   0  0  0  0  0  0  0  0  0  0  0  0
  138.8423  127.0654   87.4237 H   0  0  0  0  0  0  0  0  0  0  0  0
  137.7740  126.6857   88.8243 H   0  0  0  0  0  0  0  0  0  0  0  0
  136.2702  121.4761   83.1309 H   0  0  0  0  0  0  0  0  0  0  0  0
  136.5384  122.0076   84.7419 H   0  0  0  0  0  0  0  0  0  0  0  0
  1  2  1  0  0  0  0
  1  7  1  0  0  0  0
  1  8  1  0  0  0  0
  1  9  1  0  0  0  0
  2  3  1  0  0  0  0
  2 11  1  0  0  0  0
  2 12  1  0  0  0  0
  3  4  1  0  0  0  0
  3 13  1  0  0  0  0
  3 14  1  0  0  0  0
  4  5  1  0  0  0  0
  5  6  2  0  0  0  0
  5 10  1  0  0  0  0
  7 15  1  0  0  0  0
  7 16  1  0  0  0  0
  7 17  1  0  0  0  0
  8 18  1  0  0  0  0
  8 19  1  0  0  0  0
  8 20  1  0  0  0  0
  9 21  1  0  0  0  0
  9 22  1  0  0  0  0
  9 23  1  0  0  0  0
 10 24  1  0  0  0  0
 10 25  1  0  0  0  0
M  CHG  1   1   1
M  END
$$$$
