CCR
 OpenBabel04041915143D

 81 83  0  0  1  0  0  0  0  0999 V2000
   -1.1972   15.8790   18.7988 C   0  0  0  0  0  0  0  0  0  0  0  0
   -2.2669   16.1886   17.9607 C   0  0  0  0  0  0  0  0  0  0  0  0
   -2.5080   15.4488   16.7988 C   0  0  0  0  0  0  0  0  0  0  0  0
   -0.6346   14.0402   17.3192 C   0  0  0  0  0  0  0  0  0  0  0  0
   -0.3794   14.7980   18.4704 C   0  0  0  0  0  0  0  0  0  0  0  0
   -1.7014   14.3503   16.4528 C   0  0  0  0  0  0  0  0  0  0  0  0
   -1.9735   13.5558   15.2249 C   0  0  0  0  0  0  0  0  0  0  0  0
   -2.5952   14.0795   14.2005 N   0  0  0  0  0  0  0  0  0  0  0  0
   -1.5838   12.2909   15.1507 N   0  0  0  0  0  0  0  0  0  0  0  0
   -0.8959   16.7636   19.9880 C   0  0  0  0  0  0  0  0  0  0  0  0
    0.1048   17.8689   19.6316 C   0  0  1  0  0  0  0  0  0  0  0  0
   -0.4916   18.8839   18.7808 N   0  0  0  0  0  0  0  0  0  0  0  0
    0.5335   18.5990   20.9073 C   0  0  0  0  0  0  0  0  0  0  0  0
   -0.2331   18.6825   21.8697 O   0  0  0  0  0  0  0  0  0  0  0  0
    1.7749   19.2263   20.9085 N   0  0  0  0  0  0  0  0  0  0  0  0
    2.1103   20.0799   22.0469 C   0  0  0  0  0  0  0  0  0  0  0  0
    2.1795   21.5432   21.6166 C   0  0  0  0  0  0  0  0  0  0  0  0
    3.1471   21.6973   20.4434 C   0  0  0  0  0  0  0  0  0  0  0  0
    2.7023   20.8129   19.2838 C   0  0  0  0  0  0  0  0  0  0  0  0
    2.6392   19.3601   19.7339 C   0  0  0  0  0  0  0  0  0  0  0  0
   -0.5539   20.3789   15.4336 N   0  0  0  0  0  0  0  0  0  0  0  0
   -0.5619   21.9395   14.8709 S   0  0  0  0  0  0  0  0  0  0  0  0
   -1.7976   22.5234   15.3324 O   0  0  0  0  0  0  0  0  0  0  0  0
   -0.2844   21.8851   13.4529 O   0  0  0  0  0  0  0  0  0  0  0  0
    0.9255   22.6077   15.6823 C   0  0  0  0  0  0  0  0  0  0  0  0
    0.8726   23.6994   16.5950 C   0  0  0  0  0  0  0  0  0  0  0  0
    2.0939   24.1871   17.1777 C   0  0  0  0  0  0  0  0  0  0  0  0
    3.3361   23.5961   16.8583 C   0  0  0  0  0  0  0  0  0  0  0  0
    3.3633   22.5323   15.9639 C   0  0  0  0  0  0  0  0  0  0  0  0
    2.1889   22.0231   15.3653 C   0  0  0  0  0  0  0  0  0  0  0  0
   -0.4003   24.4005   17.0034 C   0  0  0  0  0  0  0  0  0  0  0  0
    2.0912   25.3477   18.1546 C   0  0  0  0  0  0  0  0  0  0  0  0
    2.4444   20.8677   14.4221 C   0  0  0  0  0  0  0  0  0  0  0  0
    4.4556   24.1174   17.4636 O   0  0  0  0  0  0  0  0  0  0  0  0
    5.7102   23.4849   17.2170 C   0  0  0  0  0  0  0  0  0  0  0  0
   -1.1011   20.1090   16.7752 C   0  0  1  0  0  0  0  0  0  0  0  0
   -2.5188   19.5853   16.6288 C   0  0  0  0  0  0  0  0  0  0  0  0
   -3.3477   19.8304   17.8799 C   0  0  0  0  0  0  0  0  0  0  0  0
   -4.5230   19.3764   17.8111 O   0  0  0  0  0  0  0  0  0  0  0  0
   -2.7362   20.3347   18.8630 O   0  0  0  0  0  0  0  0  0  0  0  0
   -0.2146   19.0505   17.4508 C   0  0  0  0  0  0  0  0  0  0  0  0
    0.6453   18.4009   16.8510 O   0  0  0  0  0  0  0  0  0  0  0  0
   -2.9110   17.0366   18.2042 H   0  0  0  0  0  0  0  0  0  0  0  0
   -3.3519   15.7670   16.1919 H   0  0  0  0  0  0  0  0  0  0  0  0
    0.0435   13.2174   17.1100 H   0  0  0  0  0  0  0  0  0  0  0  0
    0.4705   14.5513   19.1043 H   0  0  0  0  0  0  0  0  0  0  0  0
   -2.8132   13.5590   13.3614 H   0  0  0  0  0  0  0  0  0  0  0  0
   -2.8872   15.0621   14.2177 H   0  0  0  0  0  0  0  0  0  0  0  0
   -1.7646   11.7299   14.3324 H   0  0  0  0  0  0  0  0  0  0  0  0
   -0.4902   16.1443   20.7995 H   0  0  0  0  0  0  0  0  0  0  0  0
   -1.8258   17.1988   20.3760 H   0  0  0  0  0  0  0  0  0  0  0  0
    0.9583   17.3943   19.1396 H   0  0  0  0  0  0  0  0  0  0  0  0
   -1.2561   19.4619   19.1768 H   0  0  0  0  0  0  0  0  0  0  0  0
    3.0787   19.7501   22.4405 H   0  0  0  0  0  0  0  0  0  0  0  0
    1.3799   19.9742   22.8553 H   0  0  0  0  0  0  0  0  0  0  0  0
    2.4983   22.1676   22.4571 H   0  0  0  0  0  0  0  0  0  0  0  0
    1.1818   21.8857   21.3131 H   0  0  0  0  0  0  0  0  0  0  0  0
    4.1544   21.4009   20.7593 H   0  0  0  0  0  0  0  0  0  0  0  0
    3.1967   22.7432   20.1255 H   0  0  0  0  0  0  0  0  0  0  0  0
    3.3935   20.9047   18.4422 H   0  0  0  0  0  0  0  0  0  0  0  0
    1.7117   21.1355   18.9369 H   0  0  0  0  0  0  0  0  0  0  0  0
    2.3072   18.7557   18.8945 H   0  0  0  0  0  0  0  0  0  0  0  0
    3.6339   18.9892   20.0069 H   0  0  0  0  0  0  0  0  0  0  0  0
   -0.3945   19.6159   14.7895 H   0  0  0  0  0  0  0  0  0  0  0  0
    4.3061   22.0583   15.7061 H   0  0  0  0  0  0  0  0  0  0  0  0
   -1.3124   24.0471   16.5585 H   0  0  0  0  0  0  0  0  0  0  0  0
   -0.3550   25.4562   16.7167 H   0  0  0  0  0  0  0  0  0  0  0  0
   -0.5563   24.2984   18.0824 H   0  0  0  0  0  0  0  0  0  0  0  0
    1.0970   25.7512   18.3557 H   0  0  0  0  0  0  0  0  0  0  0  0
    2.6872   26.1765   17.7590 H   0  0  0  0  0  0  0  0  0  0  0  0
    2.4966   25.0298   19.1202 H   0  0  0  0  0  0  0  0  0  0  0  0
    1.5660   20.4523   13.9377 H   0  0  0  0  0  0  0  0  0  0  0  0
    2.9289   20.0459   14.9647 H   0  0  0  0  0  0  0  0  0  0  0  0
    3.1274   21.1862   13.6241 H   0  0  0  0  0  0  0  0  0  0  0  0
    6.4855   24.0280   17.7704 H   0  0  0  0  0  0  0  0  0  0  0  0
    5.9835   23.5269   16.1567 H   0  0  0  0  0  0  0  0  0  0  0  0
    5.7130   22.4521   17.5822 H   0  0  0  0  0  0  0  0  0  0  0  0
   -1.0348   21.0190   17.3825 H   0  0  0  0  0  0  0  0  0  0  0  0
   -2.5077   18.5051   16.4406 H   0  0  0  0  0  0  0  0  0  0  0  0
   -3.0364   20.0420   15.7799 H   0  0  0  0  0  0  0  0  0  0  0  0
   -1.1316   11.8433   15.9318 H   0  0  0  0  0  0  0  0  0  0  0  0
  1 10  1  0  0  0  0
  1  5  2  0  0  0  0
  1  2  1  0  0  0  0
  2  3  2  0  0  0  0
  2 43  1  0  0  0  0
  3  6  1  0  0  0  0
  3 44  1  0  0  0  0
  4  6  2  0  0  0  0
  4  5  1  0  0  0  0
  4 45  1  0  0  0  0
  5 46  1  0  0  0  0
  6  7  1  0  0  0  0
  7  9  2  0  0  0  0
  7  8  1  0  0  0  0
  8 47  1  0  0  0  0
  8 48  1  0  0  0  0
  9 49  1  0  0  0  0
  9 81  1  0  0  0  0
 10 11  1  0  0  0  0
 10 50  1  0  0  0  0
 10 51  1  0  0  0  0
 11 13  1  0  0  0  0
 11 12  1  0  0  0  0
 11 52  1  6  0  0  0
 12 41  1  0  0  0  0
 12 53  1  0  0  0  0
 13 15  1  0  0  0  0
 13 14  2  0  0  0  0
 15 20  1  0  0  0  0
 15 16  1  0  0  0  0
 16 17  1  0  0  0  0
 16 54  1  0  0  0  0
 16 55  1  0  0  0  0
 17 18  1  0  0  0  0
 17 56  1  0  0  0  0
 17 57  1  0  0  0  0
 18 19  1  0  0  0  0
 18 58  1  0  0  0  0
 18 59  1  0  0  0  0
 19 20  1  0  0  0  0
 19 60  1  0  0  0  0
 19 61  1  0  0  0  0
 20 62  1  0  0  0  0
 20 63  1  0  0  0  0
 21 36  1  0  0  0  0
 21 22  1  0  0  0  0
 21 64  1  0  0  0  0
 22 25  1  0  0  0  0
 22 24  2  0  0  0  0
 22 23  2  0  0  0  0
 25 30  2  0  0  0  0
 25 26  1  0  0  0  0
 26 31  1  0  0  0  0
 26 27  2  0  0  0  0
 27 32  1  0  0  0  0
 27 28  1  0  0  0  0
 28 34  1  0  0  0  0
 28 29  2  0  0  0  0
 29 30  1  0  0  0  0
 29 65  1  0  0  0  0
 30 33  1  0  0  0  0
 31 66  1  0  0  0  0
 31 67  1  0  0  0  0
 31 68  1  0  0  0  0
 32 69  1  0  0  0  0
 32 70  1  0  0  0  0
 32 71  1  0  0  0  0
 33 72  1  0  0  0  0
 33 73  1  0  0  0  0
 33 74  1  0  0  0  0
 34 35  1  0  0  0  0
 35 75  1  0  0  0  0
 35 76  1  0  0  0  0
 35 77  1  0  0  0  0
 36 41  1  0  0  0  0
 36 37  1  0  0  0  0
 36 78  1  1  0  0  0
 37 38  1  0  0  0  0
 37 79  1  0  0  0  0
 37 80  1  0  0  0  0
 38 40  2  0  0  0  0
 38 39  1  0  0  0  0
 41 42  2  0  0  0  0
M  END
$$$$
