CDB
 OpenBabel04041915483D

 53 55  0  0  0  0  0  0  0  0999 V2000
   21.1853  -16.6990   25.4023 N   0  0  0  0  0  0  0  0  0  0  0  0
   20.0711  -16.0213   25.8988 C   0  0  0  0  0  0  0  0  0  0  0  0
   20.1076  -14.6568   26.2092 C   0  0  0  0  0  0  0  0  0  0  0  0
   21.3121  -13.9746   25.9520 C   0  0  0  0  0  0  0  0  0  0  0  0
   22.4288  -14.6597   25.3954 C   0  0  0  0  0  0  0  0  0  0  0  0
   22.3307  -16.0196   25.1427 C   0  0  0  0  0  0  0  0  0  0  0  0
   18.7830  -16.8570   26.0349 C   0  0  0  0  0  0  0  0  0  0  0  0
   18.1609  -17.2063   24.6655 C   0  0  0  0  0  0  0  0  0  0  0  0
   17.7914  -16.2915   26.8065 F   0  0  0  0  0  0  0  0  0  0  0  0
   19.0450  -18.0654   26.6437 F   0  0  0  0  0  0  0  0  0  0  0  0
   17.5463  -16.0758   23.9899 N   0  0  0  0  0  0  0  0  0  0  0  0
   18.1789  -15.3771   22.9681 C   0  0  0  0  0  0  0  0  0  0  0  0
   17.4457  -14.0927   22.4648 C   0  0  0  0  0  0  0  0  0  0  0  0
   18.1373  -13.4044   21.4417 N   0  3  0  0  0  0  0  0  0  0  0  0
   19.3459  -13.9062   20.9487 C   0  0  0  0  0  0  0  0  0  0  0  0
   19.8751  -15.0177   21.4365 C   0  0  0  0  0  0  0  0  0  0  0  0
   19.3237  -15.7674   22.4608 N   0  0  0  0  0  0  0  0  0  0  0  0
   16.3908  -13.7738   22.9700 O   0  0  0  0  0  0  0  0  0  0  0  0
   20.0569  -13.1778   19.8368 C   0  0  0  0  0  0  0  0  0  0  0  0
   17.4765  -12.1878   20.9792 C   0  0  0  0  0  0  0  0  0  0  0  0
   16.0412  -12.4935   20.5175 C   0  0  0  0  0  0  0  0  0  0  0  0
   15.0778  -11.5747   20.8889 N   0  0  0  0  0  0  0  0  0  0  0  0
   15.7837  -13.5025   19.8548 O   0  0  0  0  0  0  0  0  0  0  0  0
   13.6501  -11.7978   20.6089 C   0  0  0  0  0  0  0  0  0  0  0  0
   12.7244  -11.6866   21.8369 C   0  0  0  0  0  0  0  0  0  0  0  0
   12.8178  -10.5805   22.6766 C   0  0  0  0  0  0  0  0  0  0  0  0
   11.9854  -10.4982   23.8120 C   0  0  0  0  0  0  0  0  0  0  0  0
   11.0566  -11.5271   24.0868 C   0  0  0  0  0  0  0  0  0  0  0  0
   11.7945  -12.6827   22.0848 N   0  0  0  0  0  0  0  0  0  0  0  0
   13.7171   -9.6126   22.3985 F   0  0  0  0  0  0  0  0  0  0  0  0
   10.9953  -12.5888   23.1974 C   0  0  0  0  0  0  0  0  0  0  0  0
   12.0671   -9.3231   24.7370 C   0  0  0  0  0  0  0  0  0  0  0  0
   19.2307  -14.1260   26.6192 H   0  0  0  0  0  0  0  0  0  0  0  0
   21.3999  -12.9117   26.1732 H   0  0  0  0  0  0  0  0  0  0  0  0
   23.3511  -14.1233   25.1718 H   0  0  0  0  0  0  0  0  0  0  0  0
   23.1705  -16.6025   24.7188 H   0  0  0  0  0  0  0  0  0  0  0  0
   17.3885  -17.9820   24.8168 H   0  0  0  0  0  0  0  0  0  0  0  0
   18.9421  -17.6530   24.0454 H   0  0  0  0  0  0  0  0  0  0  0  0
   16.6383  -15.7578   24.2990 H   0  0  0  0  0  0  0  0  0  0  0  0
   20.8317  -15.4258   21.0366 H   0  0  0  0  0  0  0  0  0  0  0  0
   20.9792  -13.7126   19.5681 H   0  0  0  0  0  0  0  0  0  0  0  0
   20.3316  -12.1689   20.1564 H   0  0  0  0  0  0  0  0  0  0  0  0
   19.4264  -13.1225   18.9452 H   0  0  0  0  0  0  0  0  0  0  0  0
   18.0144  -11.7857   20.1182 H   0  0  0  0  0  0  0  0  0  0  0  0
   17.4525  -11.4289   21.7710 H   0  0  0  0  0  0  0  0  0  0  0  0
   15.3538  -10.7423   21.3968 H   0  0  0  0  0  0  0  0  0  0  0  0
   13.5413  -12.7912   20.1562 H   0  0  0  0  0  0  0  0  0  0  0  0
   13.3579  -11.0531   19.8513 H   0  0  0  0  0  0  0  0  0  0  0  0
   10.4091  -11.4853   24.9678 H   0  0  0  0  0  0  0  0  0  0  0  0
   10.2842  -13.4169   23.3535 H   0  0  0  0  0  0  0  0  0  0  0  0
   12.8299   -8.6120   24.3961 H   0  0  0  0  0  0  0  0  0  0  0  0
   12.3297   -9.6524   25.7513 H   0  0  0  0  0  0  0  0  0  0  0  0
   11.1009   -8.8013   24.7733 H   0  0  0  0  0  0  0  0  0  0  0  0
  1  2  2  0  0  0  0
  1  6  1  0  0  0  0
  2  3  1  0  0  0  0
  2  7  1  0  0  0  0
  3  4  2  0  0  0  0
  3 33  1  0  0  0  0
  4  5  1  0  0  0  0
  4 34  1  0  0  0  0
  5  6  2  0  0  0  0
  5 35  1  0  0  0  0
  6 36  1  0  0  0  0
  7  8  1  0  0  0  0
  7  9  1  0  0  0  0
  7 10  1  0  0  0  0
  8 11  1  0  0  0  0
  8 37  1  0  0  0  0
  8 38  1  0  0  0  0
 11 12  1  0  0  0  0
 11 39  1  0  0  0  0
 12 13  1  0  0  0  0
 12 17  2  0  0  0  0
 13 14  1  0  0  0  0
 13 18  2  0  0  0  0
 14 15  1  0  0  0  0
 14 20  1  0  0  0  0
 15 16  2  0  0  0  0
 15 19  1  0  0  0  0
 16 17  1  0  0  0  0
 16 40  1  0  0  0  0
 19 41  1  0  0  0  0
 19 42  1  0  0  0  0
 19 43  1  0  0  0  0
 20 21  1  0  0  0  0
 20 44  1  0  0  0  0
 20 45  1  0  0  0  0
 21 22  1  0  0  0  0
 21 23  2  0  0  0  0
 22 24  1  0  0  0  0
 22 46  1  0  0  0  0
 24 25  1  0  0  0  0
 24 47  1  0  0  0  0
 24 48  1  0  0  0  0
 25 26  2  0  0  0  0
 25 29  1  0  0  0  0
 26 27  1  0  0  0  0
 26 30  1  0  0  0  0
 27 28  2  0  0  0  0
 27 32  1  0  0  0  0
 28 31  1  0  0  0  0
 28 49  1  0  0  0  0
 29 31  2  0  0  0  0
 31 50  1  0  0  0  0
 32 51  1  0  0  0  0
 32 52  1  0  0  0  0
 32 53  1  0  0  0  0
M  CHG  1  14   1
M  END
$$$$
