CIT
 OpenBabel04041915033D

 18 17  0  0  1  0  0  0  0  0999 V2000
   24.8963   -4.7056   12.9026 C   0  0  0  0  0  0  0  0  0  0  0  0
   23.7511   -4.3597   13.3254 O   0  0  0  0  0  0  0  0  0  0  0  0
   25.5895   -4.0987   12.0216 O   0  0  0  0  0  0  0  0  0  0  0  0
   25.3585   -6.1356   13.2512 C   0  0  0  0  0  0  0  0  0  0  0  0
   26.1774   -6.3389   14.5387 C   0  0  2  0  0  0  0  0  0  0  0  0
   27.5106   -5.7927   14.3210 O   0  0  0  0  0  0  0  0  0  0  0  0
   26.3948   -7.8370   14.8425 C   0  0  0  0  0  0  0  0  0  0  0  0
   27.0667   -8.2288   16.1705 C   0  0  0  0  0  0  0  0  0  0  0  0
   27.7484   -7.3490   16.7797 O   0  0  0  0  0  0  0  0  0  0  0  0
   27.0093   -9.4657   16.4373 O   0  0  0  0  0  0  0  0  0  0  0  0
   25.4396   -5.6677   15.7731 C   0  0  0  0  0  0  0  0  0  0  0  0
   25.9712   -4.6003   16.2227 O   0  0  0  0  0  0  0  0  0  0  0  0
   24.4199   -6.2862   16.2124 O   0  0  0  0  0  0  0  0  0  0  0  0
   25.9335   -6.5026   12.3899 H   0  0  0  0  0  0  0  0  0  0  0  0
   24.4505   -6.7523   13.2946 H   0  0  0  0  0  0  0  0  0  0  0  0
   27.8135   -5.6782   15.2516 H   0  0  0  0  0  0  0  0  0  0  0  0
   27.0470   -8.2658   14.0681 H   0  0  0  0  0  0  0  0  0  0  0  0
   25.4387   -8.3738   14.7878 H   0  0  0  0  0  0  0  0  0  0  0  0
  1  2  2  0  0  0  0
  1  3  1  0  0  0  0
  1  4  1  0  0  0  0
  4 14  1  0  0  0  0
  4 15  1  0  0  0  0
  5  4  1  6  0  0  0
  5  6  1  0  0  0  0
  5  7  1  0  0  0  0
  5 11  1  0  0  0  0
  6 16  1  0  0  0  0
  7  8  1  0  0  0  0
  7 17  1  0  0  0  0
  7 18  1  0  0  0  0
  8  9  2  0  0  0  0
  8 10  1  0  0  0  0
 11 12  2  0  0  0  0
 11 13  1  0  0  0  0
M  END
$$$$
