CK6
 OpenBabel04041916283D

 37 39  0  0  0  0  0  0  0  0999 V2000
   -2.4378    4.7715   25.0822 C   0  0  0  0  0  0  0  0  0  0  0  0
   -1.4836    5.9133   25.1427 C   0  0  0  0  0  0  0  0  0  0  0  0
   -1.8891    7.0030   24.3873 N   0  0  0  0  0  0  0  0  0  0  0  0
   -1.0497    8.0001   24.4556 C   0  0  0  0  0  0  0  0  0  0  0  0
   -1.3216    9.1282   23.7716 N   0  0  0  0  0  0  0  0  0  0  0  0
   -0.5240   10.3186   23.7254 C   0  0  0  0  0  0  0  0  0  0  0  0
   -0.2797    6.0867   25.8169 C   0  0  0  0  0  0  0  0  0  0  0  0
    0.3043    7.6914   25.4392 S   0  0  0  0  0  0  0  0  0  0  0  0
    0.5127    5.2198   26.7228 C   0  0  0  0  0  0  0  0  0  0  0  0
    0.1803    3.9397   27.0585 C   0  0  0  0  0  0  0  0  0  0  0  0
    1.6291    5.7718   27.2265 N   0  0  0  0  0  0  0  0  0  0  0  0
    2.4243    5.0925   28.0670 C   0  0  0  0  0  0  0  0  0  0  0  0
    2.1561    3.8388   28.4391 N   0  0  0  0  0  0  0  0  0  0  0  0
    1.0358    3.2978   27.9202 C   0  0  0  0  0  0  0  0  0  0  0  0
    3.5819    5.7018   28.5818 N   0  0  0  0  0  0  0  0  0  0  0  0
    4.1132    6.9801   28.3481 C   0  0  0  0  0  0  0  0  0  0  0  0
    3.5032    7.8892   27.4796 C   0  0  0  0  0  0  0  0  0  0  0  0
    3.9997    9.1591   27.2254 C   0  0  0  0  0  0  0  0  0  0  0  0
    5.2866    7.4116   28.9799 C   0  0  0  0  0  0  0  0  0  0  0  0
    5.8069    8.7027   28.7366 C   0  0  0  0  0  0  0  0  0  0  0  0
    5.1516    9.5633   27.8549 C   0  0  0  0  0  0  0  0  0  0  0  0
    5.6281   10.8011   27.5879 O   0  0  0  0  0  0  0  0  0  0  0  0
   -2.1407    3.9103   25.6636 H   0  0  0  0  0  0  0  0  0  0  0  0
   -2.5602    4.4320   24.0476 H   0  0  0  0  0  0  0  0  0  0  0  0
   -3.4220    5.0800   25.4520 H   0  0  0  0  0  0  0  0  0  0  0  0
   -2.1835    9.1200   23.2399 H   0  0  0  0  0  0  0  0  0  0  0  0
   -1.0157   11.0597   23.0815 H   0  0  0  0  0  0  0  0  0  0  0  0
    0.4647   10.1208   23.3021 H   0  0  0  0  0  0  0  0  0  0  0  0
   -0.4158   10.7664   24.7173 H   0  0  0  0  0  0  0  0  0  0  0  0
   -0.6917    3.4212   26.7104 H   0  0  0  0  0  0  0  0  0  0  0  0
    0.8215    2.2826   28.2388 H   0  0  0  0  0  0  0  0  0  0  0  0
    4.0790    5.0877   29.2083 H   0  0  0  0  0  0  0  0  0  0  0  0
    2.6012    7.6323   26.9562 H   0  0  0  0  0  0  0  0  0  0  0  0
    3.4664    9.8006   26.5354 H   0  0  0  0  0  0  0  0  0  0  0  0
    5.8068    6.7494   29.6682 H   0  0  0  0  0  0  0  0  0  0  0  0
    6.7174    9.0175   29.2406 H   0  0  0  0  0  0  0  0  0  0  0  0
    5.0268   11.2542   26.9563 H   0  0  0  0  0  0  0  0  0  0  0  0
  1  2  1  0  0  0  0
  1 23  1  0  0  0  0
  1 24  1  0  0  0  0
  1 25  1  0  0  0  0
  2  3  1  0  0  0  0
  2  7  2  0  0  0  0
  3  4  2  0  0  0  0
  4  5  1  0  0  0  0
  4  8  1  0  0  0  0
  5  6  1  0  0  0  0
  5 26  1  0  0  0  0
  6 27  1  0  0  0  0
  6 28  1  0  0  0  0
  6 29  1  0  0  0  0
  7  8  1  0  0  0  0
  7  9  1  0  0  0  0
  9 10  2  0  0  0  0
  9 11  1  0  0  0  0
 10 14  1  0  0  0  0
 10 30  1  0  0  0  0
 11 12  2  0  0  0  0
 12 13  1  0  0  0  0
 12 15  1  0  0  0  0
 13 14  2  0  0  0  0
 14 31  1  0  0  0  0
 15 16  1  0  0  0  0
 15 32  1  0  0  0  0
 16 17  2  0  0  0  0
 16 19  1  0  0  0  0
 17 18  1  0  0  0  0
 17 33  1  0  0  0  0
 18 21  2  0  0  0  0
 18 34  1  0  0  0  0
 19 20  2  0  0  0  0
 19 35  1  0  0  0  0
 20 21  1  0  0  0  0
 20 36  1  0  0  0  0
 21 22  1  0  0  0  0
 22 37  1  0  0  0  0
M  END
$$$$
