CK8
 OpenBabel04041916293D

 42 44  0  0  0  0  0  0  0  0999 V2000
   25.8675   38.9974    7.7314 C   0  0  0  0  0  0  0  0  0  0  0  0
   24.8205   39.6492    7.1748 N   0  0  0  0  0  0  0  0  0  0  0  0
   24.6082   40.9283    7.5258 C   0  0  0  0  0  0  0  0  0  0  0  0
   25.4033   41.5493    8.4008 N   0  0  0  0  0  0  0  0  0  0  0  0
   26.4509   40.8857    8.9547 C   0  0  0  0  0  0  0  0  0  0  0  0
   26.7261   39.5732    8.6416 C   0  0  0  0  0  0  0  0  0  0  0  0
   27.2311   41.6970    9.9189 C   0  0  0  0  0  0  0  0  0  0  0  0
   28.4698   41.5453   10.5435 C   0  0  0  0  0  0  0  0  0  0  0  0
   28.8320   42.5847   11.4048 N   0  0  0  0  0  0  0  0  0  0  0  0
   27.9034   43.5084   11.4346 C   0  0  0  0  0  0  0  0  0  0  0  0
   26.5396   43.1954   10.4697 S   0  0  0  0  0  0  0  0  0  0  0  0
   29.4545   40.4358   10.4063 C   0  0  0  0  0  0  0  0  0  0  0  0
   27.9566   44.7585   12.2439 C   0  0  0  0  0  0  0  0  0  0  0  0
   23.5197   41.5933    6.9362 N   0  0  0  0  0  0  0  0  0  0  0  0
   22.9457   42.8738    7.0474 C   0  0  0  0  0  0  0  0  0  0  0  0
   23.3954   43.8910    7.8864 C   0  0  0  0  0  0  0  0  0  0  0  0
   22.7752   45.1665    7.9343 C   0  0  0  0  0  0  0  0  0  0  0  0
   21.6599   45.5343    7.1516 C   0  0  0  0  0  0  0  0  0  0  0  0
   21.2123   44.5000    6.3092 C   0  0  0  0  0  0  0  0  0  0  0  0
   21.8314   43.2152    6.2590 C   0  0  0  0  0  0  0  0  0  0  0  0
   21.0583   46.7922    7.2039 N   0  0  0  0  0  0  0  0  0  0  0  0
   19.8995   47.1476    6.3740 C   0  0  0  0  0  0  0  0  0  0  0  0
   21.5202   47.8749    8.0751 C   0  0  0  0  0  0  0  0  0  0  0  0
   25.9942   37.9613    7.4199 H   0  0  0  0  0  0  0  0  0  0  0  0
   27.5357   39.0007    9.0653 H   0  0  0  0  0  0  0  0  0  0  0  0
   30.3437   40.6180   11.0224 H   0  0  0  0  0  0  0  0  0  0  0  0
   29.7869   40.3366    9.3690 H   0  0  0  0  0  0  0  0  0  0  0  0
   29.0215   39.4870   10.7366 H   0  0  0  0  0  0  0  0  0  0  0  0
   28.8904   44.8079   12.8114 H   0  0  0  0  0  0  0  0  0  0  0  0
   27.1259   44.8007   12.9574 H   0  0  0  0  0  0  0  0  0  0  0  0
   27.9044   45.6444   11.6022 H   0  0  0  0  0  0  0  0  0  0  0  0
   23.0580   40.9560    6.3070 H   0  0  0  0  0  0  0  0  0  0  0  0
   24.2481   43.7238    8.5357 H   0  0  0  0  0  0  0  0  0  0  0  0
   23.2170   45.8736    8.6329 H   0  0  0  0  0  0  0  0  0  0  0  0
   20.3570   44.6546    5.6543 H   0  0  0  0  0  0  0  0  0  0  0  0
   21.4177   42.4746    5.5786 H   0  0  0  0  0  0  0  0  0  0  0  0
   19.5779   48.1832    6.5617 H   0  0  0  0  0  0  0  0  0  0  0  0
   19.0340   46.5150    6.5972 H   0  0  0  0  0  0  0  0  0  0  0  0
   20.1342   47.0907    5.3059 H   0  0  0  0  0  0  0  0  0  0  0  0
   22.3794   47.6324    8.6985 H   0  0  0  0  0  0  0  0  0  0  0  0
   20.7168   48.1869    8.7544 H   0  0  0  0  0  0  0  0  0  0  0  0
   21.8017   48.7520    7.4786 H   0  0  0  0  0  0  0  0  0  0  0  0
  1  2  2  0  0  0  0
  1  6  1  0  0  0  0
  1 24  1  0  0  0  0
  2  3  1  0  0  0  0
  3  4  2  0  0  0  0
  3 14  1  0  0  0  0
  4  5  1  0  0  0  0
  5  6  2  0  0  0  0
  5  7  1  0  0  0  0
  6 25  1  0  0  0  0
  7  8  2  0  0  0  0
  7 11  1  0  0  0  0
  8  9  1  0  0  0  0
  8 12  1  0  0  0  0
  9 10  2  0  0  0  0
 10 11  1  0  0  0  0
 10 13  1  0  0  0  0
 12 26  1  0  0  0  0
 12 27  1  0  0  0  0
 12 28  1  0  0  0  0
 13 29  1  0  0  0  0
 13 30  1  0  0  0  0
 13 31  1  0  0  0  0
 14 15  1  0  0  0  0
 14 32  1  0  0  0  0
 15 16  2  0  0  0  0
 15 20  1  0  0  0  0
 16 17  1  0  0  0  0
 16 33  1  0  0  0  0
 17 18  2  0  0  0  0
 17 34  1  0  0  0  0
 18 19  1  0  0  0  0
 18 21  1  0  0  0  0
 19 20  2  0  0  0  0
 19 35  1  0  0  0  0
 20 36  1  0  0  0  0
 21 22  1  0  0  0  0
 21 23  1  0  0  0  0
 22 37  1  0  0  0  0
 22 38  1  0  0  0  0
 22 39  1  0  0  0  0
 23 40  1  0  0  0  0
 23 41  1  0  0  0  0
 23 42  1  0  0  0  0
M  END
$$$$
