CMU
 OpenBabel04041917073D

 28 29  0  0  0  0  0  0  0  0999 V2000
   -4.8137    4.5340   30.6191 Cl  0  0  0  0  0  0  0  0  0  0  0  0
   -3.5995    3.3208   30.5801 C   0  0  0  0  0  0  0  0  0  0  0  0
   -3.1095    2.7830   29.4677 C   0  0  0  0  0  0  0  0  0  0  0  0
   -3.6041    3.1144   28.0971 C   0  0  0  0  0  0  0  0  0  0  0  0
   -4.3610    1.9676   27.4373 N   0  0  0  0  0  0  0  0  0  0  0  0
   -5.3161    1.0940   28.1859 C   0  0  0  0  0  0  0  0  0  0  0  0
   -5.8063    0.1252   27.1088 C   0  0  0  0  0  0  0  0  0  0  0  0
   -4.7472    0.2158   26.0509 C   0  0  0  0  0  0  0  0  0  0  0  0
   -3.9767    1.2900   26.2628 C   0  0  0  0  0  0  0  0  0  0  0  0
   -3.1021    1.9171   25.4440 N   0  0  0  0  0  0  0  0  0  0  0  0
   -2.1492    1.7959   29.5532 N   0  3  0  0  0  0  0  0  0  0  0  0
   -1.6450    1.3230   30.7076 C   0  0  0  0  0  0  0  0  0  0  0  0
   -0.8205    0.4662   30.7513 O   0  0  0  0  0  0  0  0  0  0  0  0
   -2.1509    1.8532   31.8721 N   0  3  0  0  0  0  0  0  0  0  0  0
   -3.0764    2.8434   31.9037 C   0  0  0  0  0  0  0  0  0  0  0  0
   -3.4903    3.3274   32.9526 O   0  0  0  0  0  0  0  0  0  0  0  0
   -2.8015    3.4882   27.4480 H   0  0  0  0  0  0  0  0  0  0  0  0
   -4.3446    3.9464   28.1437 H   0  0  0  0  0  0  0  0  0  0  0  0
   -6.1046    1.7623   28.5514 H   0  0  0  0  0  0  0  0  0  0  0  0
   -4.8326    0.5834   29.0241 H   0  0  0  0  0  0  0  0  0  0  0  0
   -6.7921    0.4567   26.7443 H   0  0  0  0  0  0  0  0  0  0  0  0
   -5.9057   -0.8708   27.5319 H   0  0  0  0  0  0  0  0  0  0  0  0
   -4.6946   -0.4829   25.1724 H   0  0  0  0  0  0  0  0  0  0  0  0
   -3.0345    1.3762   24.5857 H   0  0  0  0  0  0  0  0  0  0  0  0
   -3.3923    2.8638   25.1912 H   0  0  0  0  0  0  0  0  0  0  0  0
   -1.7606    1.3745   28.7308 H   0  0  0  0  0  0  0  0  0  0  0  0
   -1.8004    1.5289   32.7837 H   0  0  0  0  0  0  0  0  0  0  0  0
   -5.0437    2.5772   27.0438 H   0  0  0  0  0  0  0  0  0  0  0  0
  1  2  1  0  0  0  0
  2  3  2  0  0  0  0
  2 15  1  0  0  0  0
  3  4  1  0  0  0  0
  3 11  1  0  0  0  0
  4  5  1  0  0  0  0
  4 17  1  0  0  0  0
  4 18  1  0  0  0  0
  5  6  1  0  0  0  0
  5  9  1  0  0  0  0
  5 28  1  0  0  0  0
  6  7  1  0  0  0  0
  6 19  1  0  0  0  0
  6 20  1  0  0  0  0
  7  8  1  0  0  0  0
  7 21  1  0  0  0  0
  7 22  1  0  0  0  0
  8  9  2  0  0  0  0
  8 23  1  0  0  0  0
  9 10  1  0  0  0  0
 10 24  1  0  0  0  0
 10 25  1  0  0  0  0
 11 12  1  0  0  0  0
 11 26  1  0  0  0  0
 12 13  2  0  0  0  0
 12 14  1  0  0  0  0
 14 15  1  0  0  0  0
 14 27  1  0  0  0  0
 15 16  2  0  0  0  0
M  CHG  2  11   1  14   1
M  END
$$$$
