CPM
 OpenBabel04041914133D

 31 31  0  0  1  0  0  0  0  0999 V2000
   -2.7288   30.7255   -6.5542 C   0  0  0  0  0  0  0  0  0  0  0  0
   -2.3480   30.0471   -7.8890 C   0  0  2  0  0  0  0  0  0  0  0  0
   -0.8264   29.8350   -8.0903 C   0  0  0  0  0  0  0  0  0  0  0  0
   -0.0857   30.8806   -8.0386 O   0  0  0  0  0  0  0  0  0  0  0  0
   -2.7940   30.9878   -9.0512 C   0  0  0  0  0  0  0  0  0  0  0  0
   -2.5787   30.4677  -10.4662 C   0  0  0  0  0  0  0  0  0  0  0  0
   -3.6118   29.8716  -11.1922 C   0  0  0  0  0  0  0  0  0  0  0  0
   -1.2926   30.4975  -11.0314 C   0  0  0  0  0  0  0  0  0  0  0  0
   -3.3494   29.2728  -12.4296 C   0  0  0  0  0  0  0  0  0  0  0  0
   -1.0208   29.8636  -12.2365 C   0  0  0  0  0  0  0  0  0  0  0  0
   -2.0459   29.2480  -12.9399 C   0  0  0  0  0  0  0  0  0  0  0  0
   -0.4525   28.7128   -8.5931 O   0  0  0  0  0  0  0  0  0  0  0  0
   -2.9878   29.6713   -5.1469 S   0  0  0  0  0  0  0  0  0  0  0  0
   -3.9419   28.4892   -5.4728 N   0  0  0  0  0  0  0  0  0  0  0  0
   -1.6183   29.1158   -4.6652 N   0  0  0  0  0  0  0  0  0  0  0  0
   -3.6860   30.6142   -3.8387 C   0  0  0  0  0  0  0  0  0  0  0  0
   -3.6754   31.2708   -6.6606 H   0  0  0  0  0  0  0  0  0  0  0  0
   -1.9723   31.4628   -6.2598 H   0  0  0  0  0  0  0  0  0  0  0  0
   -2.8750   29.0937   -7.9972 H   0  0  0  0  0  0  0  0  0  0  0  0
   -2.3008   31.9677   -8.9680 H   0  0  0  0  0  0  0  0  0  0  0  0
   -3.8659   31.2074   -8.9414 H   0  0  0  0  0  0  0  0  0  0  0  0
   -4.6077   29.8211  -10.7589 H   0  0  0  0  0  0  0  0  0  0  0  0
   -0.4680   30.9226  -10.4574 H   0  0  0  0  0  0  0  0  0  0  0  0
   -4.1491   28.7732  -12.9575 H   0  0  0  0  0  0  0  0  0  0  0  0
    0.0138   29.7931  -12.5650 H   0  0  0  0  0  0  0  0  0  0  0  0
   -1.8238   28.7079  -13.8513 H   0  0  0  0  0  0  0  0  0  0  0  0
   -3.7822   27.7599   -4.7712 H   0  0  0  0  0  0  0  0  0  0  0  0
   -1.7512   28.5017   -3.8673 H   0  0  0  0  0  0  0  0  0  0  0  0
   -3.7388   29.9831   -2.9472 H   0  0  0  0  0  0  0  0  0  0  0  0
   -4.6855   30.9316   -4.1321 H   0  0  0  0  0  0  0  0  0  0  0  0
   -3.0505   31.4791   -3.6479 H   0  0  0  0  0  0  0  0  0  0  0  0
  1  2  1  0  0  0  0
  1 13  1  0  0  0  0
  1 17  1  0  0  0  0
  1 18  1  0  0  0  0
  2  3  1  0  0  0  0
  2  5  1  0  0  0  0
  2 19  1  6  0  0  0
  3  4  2  0  0  0  0
  3 12  1  0  0  0  0
  5  6  1  0  0  0  0
  5 20  1  0  0  0  0
  5 21  1  0  0  0  0
  6  7  2  0  0  0  0
  6  8  1  0  0  0  0
  7  9  1  0  0  0  0
  7 22  1  0  0  0  0
  8 10  2  0  0  0  0
  8 23  1  0  0  0  0
  9 11  2  0  0  0  0
  9 24  1  0  0  0  0
 10 11  1  0  0  0  0
 10 25  1  0  0  0  0
 11 26  1  0  0  0  0
 13 14  2  0  0  0  0
 13 15  2  0  0  0  0
 13 16  1  0  0  0  0
 14 27  1  0  0  0  0
 15 28  1  0  0  0  0
 16 29  1  0  0  0  0
 16 30  1  0  0  0  0
 16 31  1  0  0  0  0
M  END
$$$$
