CPW
 OpenBabel04041916543D

 30 31  0  0  1  0  0  0  0  0999 V2000
   20.8294   14.4998   57.5811 C   0  0  0  0  0  0  0  0  0  0  0  0
   20.8864   13.0097   57.5381 N   0  3  0  0  0  0  0  0  0  0  0  0
   22.1863   12.4292   57.4897 C   0  0  0  0  0  0  0  0  0  0  0  0
   22.2054   11.0413   57.4990 N   0  3  0  0  0  0  0  0  0  0  0  0
   19.7364   12.2390   57.5975 C   0  0  0  0  0  0  0  0  0  0  0  0
   23.2112   13.0821   57.4913 O   0  0  0  0  0  0  0  0  0  0  0  0
   19.7905   10.9096   57.6145 C   0  0  0  0  0  0  0  0  0  0  0  0
   21.1001   10.2046   57.5302 C   0  0  0  0  0  0  0  0  0  0  0  0
   21.1814    8.9966   57.4910 O   0  0  0  0  0  0  0  0  0  0  0  0
   18.3151   12.7474   57.6109 C   0  0  0  0  0  0  0  0  0  0  0  0
   17.4639   11.4612   57.6966 C   0  0  0  0  0  0  0  0  0  0  0  0
   18.4418   10.2657   57.6343 C   0  0  0  0  0  0  0  0  0  0  0  0
   21.1723   15.0538   58.9739 C   0  0  1  0  0  0  0  0  0  0  0  0
   21.5308   16.5651   58.8369 C   0  0  0  0  0  0  0  0  0  0  0  0
   22.4725   16.8336   58.0549 O   0  0  0  0  0  0  0  0  0  0  0  0
   20.8157   17.3181   59.5636 O   0  0  0  0  0  0  0  0  0  0  0  0
   20.0409   14.7085   59.9448 N   0  3  0  0  0  0  0  0  0  0  0  0
   19.8287   14.8358   57.2716 H   0  0  0  0  0  0  0  0  0  0  0  0
   21.5492   14.8963   56.8515 H   0  0  0  0  0  0  0  0  0  0  0  0
   23.1165   10.5810   57.4559 H   0  0  0  0  0  0  0  0  0  0  0  0
   18.0696   13.3055   56.6968 H   0  0  0  0  0  0  0  0  0  0  0  0
   18.1078   13.3957   58.4725 H   0  0  0  0  0  0  0  0  0  0  0  0
   16.7363   11.4193   56.8685 H   0  0  0  0  0  0  0  0  0  0  0  0
   16.8834   11.4429   58.6347 H   0  0  0  0  0  0  0  0  0  0  0  0
   18.3057    9.6143   58.5067 H   0  0  0  0  0  0  0  0  0  0  0  0
   18.2629    9.6748   56.7269 H   0  0  0  0  0  0  0  0  0  0  0  0
   22.0363   14.5241   59.3803 H   0  0  0  0  0  0  0  0  0  0  0  0
   20.2672   15.1012   60.8723 H   0  0  0  0  0  0  0  0  0  0  0  0
   19.1735   15.1714   59.6390 H   0  0  0  0  0  0  0  0  0  0  0  0
   19.9082   13.6993   60.0141 H   0  0  0  0  0  0  0  0  0  0  0  0
  1  2  1  0  0  0  0
  1 13  1  0  0  0  0
  1 18  1  0  0  0  0
  1 19  1  0  0  0  0
  2  3  1  0  0  0  0
  2  5  1  0  0  0  0
  3  4  1  0  0  0  0
  3  6  2  0  0  0  0
  4  8  1  0  0  0  0
  4 20  1  0  0  0  0
  5  7  2  0  0  0  0
  5 10  1  0  0  0  0
  7  8  1  0  0  0  0
  7 12  1  0  0  0  0
  8  9  2  0  0  0  0
 10 11  1  0  0  0  0
 10 21  1  0  0  0  0
 10 22  1  0  0  0  0
 11 12  1  0  0  0  0
 11 23  1  0  0  0  0
 11 24  1  0  0  0  0
 12 25  1  0  0  0  0
 12 26  1  0  0  0  0
 13 14  1  0  0  0  0
 13 17  1  0  0  0  0
 13 27  1  1  0  0  0
 14 15  2  0  0  0  0
 14 16  1  0  0  0  0
 17 28  1  0  0  0  0
 17 29  1  0  0  0  0
 17 30  1  0  0  0  0
M  CHG  3   2   1   4   1  17   1
M  END
$$$$
