CR9
 OpenBabel04041916063D

 52 55  0  0  1  0  0  0  0  0999 V2000
    8.9888    1.3889   24.6981 C   0  0  0  0  0  0  0  0  0  0  0  0
    9.8241    1.1845   23.5883 C   0  0  0  0  0  0  0  0  0  0  0  0
   10.0224   -0.0684   23.1441 F   0  0  0  0  0  0  0  0  0  0  0  0
   10.4764    2.2232   22.9182 C   0  0  0  0  0  0  0  0  0  0  0  0
   10.2350    3.4806   23.4348 C   0  0  0  0  0  0  0  0  0  0  0  0
    9.3615    3.7434   24.4805 C   0  0  0  0  0  0  0  0  0  0  0  0
    8.7176    2.6918   25.1242 C   0  0  0  0  0  0  0  0  0  0  0  0
    8.3875    0.2593   25.3964 C   0  0  0  0  0  0  0  0  0  0  0  0
    8.1241    0.3602   26.6874 N   0  0  0  0  0  0  0  0  0  0  0  0
    8.1168   -0.8538   24.7570 N   0  0  0  0  0  0  0  0  0  0  0  0
   10.7358    4.7089   23.1253 N   0  3  0  0  0  0  0  0  0  0  0  0
    9.2582    5.0703   24.7346 N   0  0  0  0  0  0  0  0  0  0  0  0
   10.0759    5.6485   23.8819 C   0  0  0  0  0  0  0  0  0  0  0  0
   10.3055    7.0715   23.7491 C   0  0  0  0  0  0  0  0  0  0  0  0
    9.8610    7.9269   24.7655 C   0  0  0  0  0  0  0  0  0  0  0  0
   10.0943    9.2939   24.6888 C   0  0  0  0  0  0  0  0  0  0  0  0
   10.7775    9.8112   23.5920 C   0  0  0  0  0  0  0  0  0  0  0  0
   11.2576    8.9591   22.5900 C   0  0  0  0  0  0  0  0  0  0  0  0
   10.9918    7.5981   22.6565 C   0  0  0  0  0  0  0  0  0  0  0  0
   11.4584    6.7758   21.6536 O   0  0  0  0  0  0  0  0  0  0  0  0
   11.9644    9.3453   21.4922 O   0  0  0  0  0  0  0  0  0  0  0  0
   12.1623   11.6430   20.7215 C   0  0  2  0  0  0  0  0  0  0  0  0
   13.0276   11.8419   19.4730 C   0  0  0  0  0  0  0  0  0  0  0  0
   14.4832   12.1599   19.8306 C   0  0  0  0  0  0  0  0  0  0  0  0
   14.9971   11.3949   21.0509 C   0  0  0  0  0  0  0  0  0  0  0  0
   14.1840   10.1356   21.2732 C   0  0  0  0  0  0  0  0  0  0  0  0
   12.7428   10.5256   21.6215 C   0  0  2  0  0  0  0  0  0  0  0  0
   10.7006   11.4085   20.3200 C   0  0  0  0  0  0  0  0  0  0  0  0
   11.1284    2.0497   22.0732 H   0  0  0  0  0  0  0  0  0  0  0  0
    8.0386    2.9360   25.9326 H   0  0  0  0  0  0  0  0  0  0  0  0
    7.7058   -0.3915   27.2205 H   0  0  0  0  0  0  0  0  0  0  0  0
    8.3852   -0.9386   23.7591 H   0  0  0  0  0  0  0  0  0  0  0  0
    7.6841   -1.6614   25.1753 H   0  0  0  0  0  0  0  0  0  0  0  0
   11.4623    4.9256   22.4523 H   0  0  0  0  0  0  0  0  0  0  0  0
    9.3431    7.5213   25.6316 H   0  0  0  0  0  0  0  0  0  0  0  0
    9.7546    9.9510   25.4857 H   0  0  0  0  0  0  0  0  0  0  0  0
   10.9163   10.8870   23.5468 H   0  0  0  0  0  0  0  0  0  0  0  0
   10.6706    6.4763   21.1619 H   0  0  0  0  0  0  0  0  0  0  0  0
   12.2001   12.5780   21.2980 H   0  0  0  0  0  0  0  0  0  0  0  0
   12.6224   12.6447   18.8468 H   0  0  0  0  0  0  0  0  0  0  0  0
   12.9955   10.9288   18.8621 H   0  0  0  0  0  0  0  0  0  0  0  0
   14.5911   13.2344   20.0181 H   0  0  0  0  0  0  0  0  0  0  0  0
   15.1128   11.9285   18.9640 H   0  0  0  0  0  0  0  0  0  0  0  0
   14.9134   12.0316   21.9419 H   0  0  0  0  0  0  0  0  0  0  0  0
   16.0590   11.1583   20.9347 H   0  0  0  0  0  0  0  0  0  0  0  0
   14.6071    9.5332   22.0871 H   0  0  0  0  0  0  0  0  0  0  0  0
   14.2134    9.4877   20.3865 H   0  0  0  0  0  0  0  0  0  0  0  0
   12.7852   10.8963   22.6530 H   0  0  0  0  0  0  0  0  0  0  0  0
   10.3180   12.2435   19.7277 H   0  0  0  0  0  0  0  0  0  0  0  0
   10.0575   11.3125   21.2007 H   0  0  0  0  0  0  0  0  0  0  0  0
   10.5916   10.4983   19.7184 H   0  0  0  0  0  0  0  0  0  0  0  0
    8.3642    1.2035   27.2023 H   0  0  0  0  0  0  0  0  0  0  0  0
  1  2  2  0  0  0  0
  1  7  1  0  0  0  0
  1  8  1  0  0  0  0
  2  3  1  0  0  0  0
  2  4  1  0  0  0  0
  4  5  2  0  0  0  0
  4 29  1  0  0  0  0
  5  6  1  0  0  0  0
  5 11  1  0  0  0  0
  6  7  2  0  0  0  0
  6 12  1  0  0  0  0
  7 30  1  0  0  0  0
  8  9  2  0  0  0  0
  8 10  1  0  0  0  0
  9 31  1  0  0  0  0
  9 52  1  0  0  0  0
 10 32  1  0  0  0  0
 10 33  1  0  0  0  0
 11 13  2  0  0  0  0
 11 34  1  0  0  0  0
 12 13  1  0  0  0  0
 13 14  1  0  0  0  0
 14 15  2  0  0  0  0
 14 19  1  0  0  0  0
 15 16  1  0  0  0  0
 15 35  1  0  0  0  0
 16 17  2  0  0  0  0
 16 36  1  0  0  0  0
 17 18  1  0  0  0  0
 17 37  1  0  0  0  0
 18 19  2  0  0  0  0
 18 21  1  0  0  0  0
 19 20  1  0  0  0  0
 20 38  1  0  0  0  0
 21 27  1  0  0  0  0
 22 23  1  0  0  0  0
 22 27  1  0  0  0  0
 22 28  1  0  0  0  0
 22 39  1  1  0  0  0
 23 24  1  0  0  0  0
 23 40  1  0  0  0  0
 23 41  1  0  0  0  0
 24 25  1  0  0  0  0
 24 42  1  0  0  0  0
 24 43  1  0  0  0  0
 25 26  1  0  0  0  0
 25 44  1  0  0  0  0
 25 45  1  0  0  0  0
 26 27  1  0  0  0  0
 26 46  1  0  0  0  0
 26 47  1  0  0  0  0
 27 48  1  1  0  0  0
 28 49  1  0  0  0  0
 28 50  1  0  0  0  0
 28 51  1  0  0  0  0
M  CHG  1  11   1
M  END
$$$$
