CYS
 OpenBabel04041916523D

 14 13  0  0  1  0  0  0  0  0999 V2000
    8.5505   42.5331   51.4644 N   0  3  0  0  0  0  0  0  0  0  0  0
    8.9025   42.3065   50.0061 C   0  0  2  0  0  0  0  0  0  0  0  0
   10.3547   41.8081   49.8315 C   0  0  0  0  0  0  0  0  0  0  0  0
   10.9707   41.7894   50.9478 O   0  0  0  0  0  0  0  0  0  0  0  0
    8.6707   43.5885   49.2107 C   0  0  0  0  0  0  0  0  0  0  0  0
    9.4903   45.0799   49.8936 S   0  0  0  0  0  0  0  0  0  0  0  0
   10.6951   41.4733   48.6755 O   0  0  0  0  0  0  0  0  0  0  0  0
    7.6066   42.8723   51.6345 H   0  0  0  0  0  0  0  0  0  0  0  0
    8.7678   41.6658   51.9698 H   0  0  0  0  0  0  0  0  0  0  0  0
    8.2165   41.5227   49.6598 H   0  0  0  0  0  0  0  0  0  0  0  0
    7.6003   43.8240   49.2411 H   0  0  0  0  0  0  0  0  0  0  0  0
    8.9415   43.4583   48.1594 H   0  0  0  0  0  0  0  0  0  0  0  0
   10.7686   44.6924   49.7195 H   0  0  0  0  0  0  0  0  0  0  0  0
    9.2656   43.1902   51.8144 H   0  0  0  0  0  0  0  0  0  0  0  0
  1  2  1  0  0  0  0
  1  8  1  0  0  0  0
  1  9  1  0  0  0  0
  1 14  1  0  0  0  0
  2  3  1  0  0  0  0
  2  5  1  0  0  0  0
  2 10  1  6  0  0  0
  3  4  2  0  0  0  0
  3  7  1  0  0  0  0
  5  6  1  0  0  0  0
  5 11  1  0  0  0  0
  5 12  1  0  0  0  0
  6 13  1  0  0  0  0
M  CHG  1   1   1
M  END
$$$$
