DAN
 OpenBabel04041917283D

 39 39  0  0  1  0  0  0  0  0999 V2000
  -30.5952   53.9970   74.8915 C   0  0  0  0  0  0  0  0  0  0  0  0
  -31.3418   55.1839   75.7164 C   0  0  0  0  0  0  0  0  0  0  0  0
  -31.8645   54.9981   76.9360 C   0  0  0  0  0  0  0  0  0  0  0  0
  -32.4318   56.1677   77.6712 C   0  0  1  0  0  0  0  0  0  0  0  0
  -32.9889   57.2103   76.7047 C   0  0  2  0  0  0  0  0  0  0  0  0
  -31.8587   57.5677   75.7645 C   0  0  2  0  0  0  0  0  0  0  0  0
  -32.3060   58.5988   74.7180 C   0  0  1  0  0  0  0  0  0  0  0  0
  -31.2233   58.7338   73.6851 C   0  0  1  0  0  0  0  0  0  0  0  0
  -31.5587   59.8779   72.7563 C   0  0  0  0  0  0  0  0  0  0  0  0
  -34.6408   59.0007   77.3791 C   0  0  2  0  0  0  0  0  0  0  0  0
  -34.6796   60.3633   78.0568 C   0  0  0  0  0  0  0  0  0  0  0  0
  -33.3260   58.4196   77.5562 N   0  3  0  0  0  0  0  0  0  0  0  0
  -30.5119   52.8994   75.4913 O   0  0  0  0  0  0  0  0  0  0  0  0
  -30.1681   54.3438   73.7439 O   0  0  0  0  0  0  0  0  0  0  0  0
  -33.4027   55.8636   78.6703 O   0  0  0  0  0  0  0  0  0  0  0  0
  -31.3856   56.4140   75.0792 O   0  0  0  0  0  0  0  0  0  0  0  0
  -33.4936   58.2526   74.0103 O   0  0  0  0  0  0  0  0  0  0  0  0
  -29.9695   59.0009   74.3349 O   0  0  0  0  0  0  0  0  0  0  0  0
  -30.4830   59.9193   71.8277 O   0  0  0  0  0  0  0  0  0  0  0  0
  -34.8913   59.0849   76.0176 O   0  0  0  0  0  0  0  0  0  0  0  0
  -31.8133   54.0149   77.4269 H   0  0  0  0  0  0  0  0  0  0  0  0
  -31.6044   56.6617   78.1816 H   0  0  0  0  0  0  0  0  0  0  0  0
  -33.8811   56.8524   76.1738 H   0  0  0  0  0  0  0  0  0  0  0  0
  -31.0408   58.0197   76.3686 H   0  0  0  0  0  0  0  0  0  0  0  0
  -32.4525   59.5735   75.2058 H   0  0  0  0  0  0  0  0  0  0  0  0
  -31.1566   57.8143   73.0908 H   0  0  0  0  0  0  0  0  0  0  0  0
  -31.6218   60.8413   73.2917 H   0  0  0  0  0  0  0  0  0  0  0  0
  -32.5072   59.7208   72.2255 H   0  0  0  0  0  0  0  0  0  0  0  0
  -35.3584   58.3332   77.8603 H   0  0  0  0  0  0  0  0  0  0  0  0
  -35.6731   60.8080   77.9246 H   0  0  0  0  0  0  0  0  0  0  0  0
  -33.9461   61.0535   77.6195 H   0  0  0  0  0  0  0  0  0  0  0  0
  -34.4808   60.2807   79.1326 H   0  0  0  0  0  0  0  0  0  0  0  0
  -33.2036   58.1549   78.5251 H   0  0  0  0  0  0  0  0  0  0  0  0
  -33.5639   56.6360   79.2489 H   0  0  0  0  0  0  0  0  0  0  0  0
  -34.2386   58.1644   74.6308 H   0  0  0  0  0  0  0  0  0  0  0  0
  -29.2781   58.9971   73.6502 H   0  0  0  0  0  0  0  0  0  0  0  0
  -29.6719   60.0287   72.3518 H   0  0  0  0  0  0  0  0  0  0  0  0
  -35.7249   59.4689   75.9225 H   0  0  0  0  0  0  0  0  0  0  0  0
  -32.6125   59.1255   77.3538 H   0  0  0  0  0  0  0  0  0  0  0  0
  1  2  1  0  0  0  0
  1 13  2  0  0  0  0
  1 14  1  0  0  0  0
  2  3  2  0  0  0  0
  2 16  1  0  0  0  0
  3  4  1  0  0  0  0
  3 21  1  0  0  0  0
  4  5  1  0  0  0  0
  4 15  1  0  0  0  0
  4 22  1  1  0  0  0
  5  6  1  0  0  0  0
  5 12  1  0  0  0  0
  5 23  1  6  0  0  0
  6  7  1  0  0  0  0
  6 16  1  0  0  0  0
  6 24  1  1  0  0  0
  7  8  1  0  0  0  0
  7 17  1  0  0  0  0
  7 25  1  1  0  0  0
  8  9  1  0  0  0  0
  8 18  1  0  0  0  0
  8 26  1  6  0  0  0
  9 19  1  0  0  0  0
  9 27  1  0  0  0  0
  9 28  1  0  0  0  0
 10 11  1  0  0  0  0
 10 12  1  0  0  0  0
 10 20  1  0  0  0  0
 10 29  1  1  0  0  0
 11 30  1  0  0  0  0
 11 31  1  0  0  0  0
 11 32  1  0  0  0  0
 12 33  1  0  0  0  0
 12 39  1  0  0  0  0
 15 34  1  0  0  0  0
 17 35  1  0  0  0  0
 18 36  1  0  0  0  0
 19 37  1  0  0  0  0
 20 38  1  0  0  0  0
M  CHG  1  12   1
M  END
$$$$
