DAN
 OpenBabel04041914353D

 36 36  0  0  1  0  0  0  0  0999 V2000
   23.5662   19.8670   64.8112 C   0  0  0  0  0  0  0  0  0  0  0  0
   24.2679   18.7556   63.9497 C   0  0  0  0  0  0  0  0  0  0  0  0
   23.6272   17.6336   63.5953 C   0  0  0  0  0  0  0  0  0  0  0  0
   24.2609   16.6436   62.6773 C   0  0  1  0  0  0  0  0  0  0  0  0
   25.7874   16.7814   62.6322 C   0  0  2  0  0  0  0  0  0  0  0  0
   26.1631   18.2670   62.5422 C   0  0  2  0  0  0  0  0  0  0  0  0
   27.6945   18.4800   62.6531 C   0  0  1  0  0  0  0  0  0  0  0  0
   28.0505   19.9541   62.4787 C   0  0  1  0  0  0  0  0  0  0  0  0
   29.5278   20.2155   62.8056 C   0  0  0  0  0  0  0  0  0  0  0  0
   27.1211   14.9281   61.6465 C   0  0  0  0  0  0  0  0  0  0  0  0
   27.5780   14.2287   60.4095 C   0  0  0  0  0  0  0  0  0  0  0  0
   26.3128   16.0215   61.4744 N   0  0  0  0  0  0  0  0  0  0  0  0
   24.2384   20.9334   64.9421 O   0  0  0  0  0  0  0  0  0  0  0  0
   22.4041   19.5910   65.2320 O   0  0  0  0  0  0  0  0  0  0  0  0
   23.8775   15.3192   63.0460 O   0  0  0  0  0  0  0  0  0  0  0  0
   25.5485   19.0326   63.5743 O   0  0  0  0  0  0  0  0  0  0  0  0
   28.2112   18.0414   63.9172 O   0  0  0  0  0  0  0  0  0  0  0  0
   27.7835   20.3218   61.1197 O   0  0  0  0  0  0  0  0  0  0  0  0
   30.4160   19.5472   61.9081 O   0  0  0  0  0  0  0  0  0  0  0  0
   27.3985   14.4794   62.7396 O   0  0  0  0  0  0  0  0  0  0  0  0
   22.6303   17.4511   63.9779 H   0  0  0  0  0  0  0  0  0  0  0  0
   23.8546   16.8102   61.6608 H   0  0  0  0  0  0  0  0  0  0  0  0
   26.1851   16.3605   63.5574 H   0  0  0  0  0  0  0  0  0  0  0  0
   25.8089   18.6670   61.5806 H   0  0  0  0  0  0  0  0  0  0  0  0
   28.1928   17.9085   61.8620 H   0  0  0  0  0  0  0  0  0  0  0  0
   27.4381   20.5639   63.1557 H   0  0  0  0  0  0  0  0  0  0  0  0
   29.7632   19.8847   63.8226 H   0  0  0  0  0  0  0  0  0  0  0  0
   29.7358   21.2877   62.7421 H   0  0  0  0  0  0  0  0  0  0  0  0
   28.1861   13.3606   60.7107 H   0  0  0  0  0  0  0  0  0  0  0  0
   28.1931   14.8949   59.8098 H   0  0  0  0  0  0  0  0  0  0  0  0
   26.7260   13.8588   59.8292 H   0  0  0  0  0  0  0  0  0  0  0  0
   26.0923   16.3376   60.5415 H   0  0  0  0  0  0  0  0  0  0  0  0
   24.3424   14.7165   62.4405 H   0  0  0  0  0  0  0  0  0  0  0  0
   27.7870   18.5991   64.6005 H   0  0  0  0  0  0  0  0  0  0  0  0
   27.9742   21.2694   61.0530 H   0  0  0  0  0  0  0  0  0  0  0  0
   30.1943   19.8390   61.0074 H   0  0  0  0  0  0  0  0  0  0  0  0
  1 14  2  0  0  0  0
  1 13  1  0  0  0  0
  1  2  1  0  0  0  0
  2 16  1  0  0  0  0
  2  3  2  0  0  0  0
  3  4  1  0  0  0  0
  3 21  1  0  0  0  0
  4 15  1  0  0  0  0
  4  5  1  0  0  0  0
  4 22  1  6  0  0  0
  5 12  1  0  0  0  0
  5  6  1  0  0  0  0
  5 23  1  1  0  0  0
  6 16  1  0  0  0  0
  6  7  1  0  0  0  0
  6 24  1  6  0  0  0
  7 17  1  0  0  0  0
  7  8  1  0  0  0  0
  7 25  1  6  0  0  0
  8 18  1  0  0  0  0
  8  9  1  0  0  0  0
  8 26  1  1  0  0  0
  9 19  1  0  0  0  0
  9 27  1  0  0  0  0
  9 28  1  0  0  0  0
 10 12  1  0  0  0  0
 10 20  2  0  0  0  0
 10 11  1  0  0  0  0
 11 29  1  0  0  0  0
 11 30  1  0  0  0  0
 11 31  1  0  0  0  0
 12 32  1  0  0  0  0
 15 33  1  0  0  0  0
 17 34  1  0  0  0  0
 18 35  1  0  0  0  0
 19 36  1  0  0  0  0
M  END
$$$$
