DBD
 OpenBabel04041915243D

 43 46  0  0  1  0  0  0  0  0999 V2000
   13.9023   44.1436   17.3297 O   0  0  0  0  0  0  0  0  0  0  0  0
   13.7890   45.0261   18.4861 C   0  0  2  0  0  0  0  0  0  0  0  0
   12.3600   45.3812   18.7600 C   0  0  0  0  0  0  0  0  0  0  0  0
   11.2795   45.0300   17.9703 C   0  0  0  0  0  0  0  0  0  0  0  0
   11.5242   44.2075   16.7572 C   0  0  0  0  0  0  0  0  0  0  0  0
   12.7532   43.3409   17.0668 C   0  0  0  0  0  0  0  0  0  0  0  0
   11.8684   46.0852   20.2255 S   0  0  0  0  0  0  0  0  0  0  0  0
   10.2330   45.9397   19.8074 C   0  0  0  0  0  0  0  0  0  0  0  0
   10.0323   45.3965   18.5624 C   0  0  0  0  0  0  0  0  0  0  0  0
    8.6649   45.2517   17.9794 C   0  0  0  0  0  0  0  0  0  0  0  0
    8.6131   45.1375   16.7039 O   0  0  0  0  0  0  0  0  0  0  0  0
    7.6645   45.3004   18.7527 O   0  0  0  0  0  0  0  0  0  0  0  0
    9.2186   46.3392   20.6314 N   0  0  0  0  0  0  0  0  0  0  0  0
    9.2991   47.0539   21.8072 C   0  0  0  0  0  0  0  0  0  0  0  0
    7.9506   47.4295   22.4581 C   0  0  0  0  0  0  0  0  0  0  0  0
    7.8424   48.5982   22.9498 O   0  0  0  0  0  0  0  0  0  0  0  0
    7.0401   46.5382   22.4062 O   0  0  0  0  0  0  0  0  0  0  0  0
   10.3190   47.4206   22.3870 O   0  0  0  0  0  0  0  0  0  0  0  0
   14.6732   46.2124   18.1109 C   0  0  0  0  0  0  0  0  0  0  0  0
   15.9990   45.7244   17.7792 O   0  0  0  0  0  0  0  0  0  0  0  0
   16.7493   45.2683   18.8037 C   0  0  0  0  0  0  0  0  0  0  0  0
   17.9783   44.5989   18.4121 C   0  0  0  0  0  0  0  0  0  0  0  0
   18.6773   44.2734   19.5604 C   0  0  0  0  0  0  0  0  0  0  0  0
   17.7407   44.7923   20.9375 S   0  0  0  0  0  0  0  0  0  0  0  0
   16.4831   45.3938   20.0699 N   0  0  0  0  0  0  0  0  0  0  0  0
   18.4616   44.2772   17.1571 C   0  0  0  0  0  0  0  0  0  0  0  0
   19.6763   43.5927   17.0884 C   0  0  0  0  0  0  0  0  0  0  0  0
   20.3984   43.2992   18.2636 C   0  0  0  0  0  0  0  0  0  0  0  0
   19.8899   43.6196   19.5295 C   0  0  0  0  0  0  0  0  0  0  0  0
   18.4670   45.8773   21.5596 O   0  0  0  0  0  0  0  0  0  0  0  0
   17.3603   43.6005   21.6695 O   0  0  0  0  0  0  0  0  0  0  0  0
   14.2186   44.4972   19.3420 H   0  0  0  0  0  0  0  0  0  0  0  0
   11.7091   44.8532   15.8914 H   0  0  0  0  0  0  0  0  0  0  0  0
   10.6733   43.5536   16.5535 H   0  0  0  0  0  0  0  0  0  0  0  0
   12.5828   42.6973   17.9373 H   0  0  0  0  0  0  0  0  0  0  0  0
   12.9997   42.7118   16.2096 H   0  0  0  0  0  0  0  0  0  0  0  0
    8.2667   46.1155   20.3010 H   0  0  0  0  0  0  0  0  0  0  0  0
   14.7552   46.9597   18.9075 H   0  0  0  0  0  0  0  0  0  0  0  0
   14.2505   46.7191   17.2276 H   0  0  0  0  0  0  0  0  0  0  0  0
   17.9118   44.5490   16.2624 H   0  0  0  0  0  0  0  0  0  0  0  0
   20.0641   43.2811   16.1208 H   0  0  0  0  0  0  0  0  0  0  0  0
   21.3729   42.8225   18.1821 H   0  0  0  0  0  0  0  0  0  0  0  0
   20.4187   43.3516   20.4324 H   0  0  0  0  0  0  0  0  0  0  0  0
  1  2  1  0  0  0  0
  1  6  1  0  0  0  0
  2  3  1  0  0  0  0
  2 19  1  0  0  0  0
  2 32  1  1  0  0  0
  3  4  2  0  0  0  0
  3  7  1  0  0  0  0
  4  5  1  0  0  0  0
  4  9  1  0  0  0  0
  5  6  1  0  0  0  0
  5 33  1  0  0  0  0
  5 34  1  0  0  0  0
  6 35  1  0  0  0  0
  6 36  1  0  0  0  0
  7  8  1  0  0  0  0
  8  9  2  0  0  0  0
  8 13  1  0  0  0  0
  9 10  1  0  0  0  0
 10 11  2  0  0  0  0
 10 12  1  0  0  0  0
 13 14  1  0  0  0  0
 13 37  1  0  0  0  0
 14 15  1  0  0  0  0
 14 18  2  0  0  0  0
 15 16  2  0  0  0  0
 15 17  1  0  0  0  0
 19 20  1  0  0  0  0
 19 38  1  0  0  0  0
 19 39  1  0  0  0  0
 20 21  1  0  0  0  0
 21 22  1  0  0  0  0
 21 25  2  0  0  0  0
 22 23  2  0  0  0  0
 22 26  1  0  0  0  0
 23 24  1  0  0  0  0
 23 29  1  0  0  0  0
 24 25  1  0  0  0  0
 24 30  2  0  0  0  0
 24 31  2  0  0  0  0
 26 27  2  0  0  0  0
 26 40  1  0  0  0  0
 27 28  1  0  0  0  0
 27 41  1  0  0  0  0
 28 29  2  0  0  0  0
 28 42  1  0  0  0  0
 29 43  1  0  0  0  0
M  END
$$$$
