DCM
 OpenBabel04041915543D

 32 33  0  0  1  0  0  0  0  0999 V2000
   15.2183   46.7994  -52.4336 N   0  3  0  0  0  0  0  0  0  0  0  0
   14.3932   45.8501  -51.7952 C   0  0  0  0  0  0  0  0  0  0  0  0
   13.6043   46.2923  -50.7338 N   0  0  0  0  0  0  0  0  0  0  0  0
   13.6483   47.5386  -50.3756 C   0  0  0  0  0  0  0  0  0  0  0  0
   14.4930   48.5433  -51.0356 C   0  0  0  0  0  0  0  0  0  0  0  0
   15.2304   48.1090  -52.0372 C   0  0  0  0  0  0  0  0  0  0  0  0
   14.3751   44.6686  -52.1284 O   0  0  0  0  0  0  0  0  0  0  0  0
   12.9043   47.9912  -49.3255 N   0  0  0  0  0  0  0  0  0  0  0  0
   16.0385   46.4135  -53.5822 C   0  0  1  0  0  0  0  0  0  0  0  0
   15.2596   46.3102  -54.8760 C   0  0  0  0  0  0  0  0  0  0  0  0
   16.4095   46.3585  -55.8531 C   0  0  1  0  0  0  0  0  0  0  0  0
   17.2490   47.5167  -55.3301 C   0  0  2  0  0  0  0  0  0  0  0  0
   17.1290   47.3720  -53.8635 O   0  0  0  0  0  0  0  0  0  0  0  0
   17.1369   45.1200  -55.6819 O   0  0  0  0  0  0  0  0  0  0  0  0
   16.7142   48.8715  -55.8711 C   0  0  0  0  0  0  0  0  0  0  0  0
   17.0275   48.9982  -57.2614 O   0  0  0  0  0  0  0  0  0  0  0  0
   15.8844   49.3134  -58.4142 P   0  0  0  0  0  0  0  0  0  0  0  0
   16.5835   49.0074  -59.7292 O   0  0  0  0  0  0  0  0  0  0  0  0
   14.7626   48.3379  -58.0668 O   0  0  0  0  0  0  0  0  0  0  0  0
   15.5311   50.7798  -58.2385 O   0  0  0  0  0  0  0  0  0  0  0  0
   14.4977   49.5777  -50.7065 H   0  0  0  0  0  0  0  0  0  0  0  0
   15.8875   48.7759  -52.5898 H   0  0  0  0  0  0  0  0  0  0  0  0
   12.8955   48.9436  -49.0389 H   0  0  0  0  0  0  0  0  0  0  0  0
   12.2803   47.3377  -48.8468 H   0  0  0  0  0  0  0  0  0  0  0  0
   16.4900   45.4467  -53.3220 H   0  0  0  0  0  0  0  0  0  0  0  0
   14.5716   47.1588  -54.9953 H   0  0  0  0  0  0  0  0  0  0  0  0
   14.6804   45.3874  -54.9289 H   0  0  0  0  0  0  0  0  0  0  0  0
   16.0929   46.4672  -56.8863 H   0  0  0  0  0  0  0  0  0  0  0  0
   18.3081   47.4147  -55.6284 H   0  0  0  0  0  0  0  0  0  0  0  0
   17.8993   45.1679  -56.2816 H   0  0  0  0  0  0  0  0  0  0  0  0
   17.2068   49.6894  -55.3237 H   0  0  0  0  0  0  0  0  0  0  0  0
   15.6445   48.9518  -55.6573 H   0  0  0  0  0  0  0  0  0  0  0  0
  1  9  1  0  0  0  0
  1  6  1  0  0  0  0
  1  2  1  0  0  0  0
  2  7  2  0  0  0  0
  2  3  1  0  0  0  0
  3  4  2  0  0  0  0
  4  8  1  0  0  0  0
  4  5  1  0  0  0  0
  5  6  2  0  0  0  0
  5 21  1  0  0  0  0
  6 22  1  0  0  0  0
  8 23  1  0  0  0  0
  8 24  1  0  0  0  0
  9 13  1  0  0  0  0
  9 10  1  0  0  0  0
  9 25  1  1  0  0  0
 10 11  1  0  0  0  0
 10 26  1  0  0  0  0
 10 27  1  0  0  0  0
 11 14  1  0  0  0  0
 11 12  1  0  0  0  0
 11 28  1  6  0  0  0
 12 15  1  0  0  0  0
 12 13  1  0  0  0  0
 12 29  1  6  0  0  0
 14 30  1  0  0  0  0
 15 16  1  0  0  0  0
 15 31  1  0  0  0  0
 15 32  1  0  0  0  0
 16 17  1  0  0  0  0
 17 20  2  0  0  0  0
 17 19  1  0  0  0  0
 17 18  1  0  0  0  0
M  CHG  1   1   1
M  END
$$$$
