DCY
 OpenBabel04041914333D

 14 13  0  0  1  0  0  0  0  0999 V2000
   10.3913  -11.1410   23.1052 N   0  3  0  0  0  0  0  0  0  0  0  0
    9.8612   -9.7207   23.2197 C   0  0  1  0  0  0  0  0  0  0  0  0
    9.7515   -9.2421   24.6840 C   0  0  0  0  0  0  0  0  0  0  0  0
    9.1215   -8.1769   24.8797 O   0  0  0  0  0  0  0  0  0  0  0  0
   10.7316   -8.7779   22.3952 C   0  0  0  0  0  0  0  0  0  0  0  0
   12.4190   -8.4280   23.0164 S   0  0  0  0  0  0  0  0  0  0  0  0
   10.2721  -10.0953   25.4751 O   0  0  0  0  0  0  0  0  0  0  0  0
    9.7996  -11.7154   23.7234 H   0  0  0  0  0  0  0  0  0  0  0  0
   10.4422  -11.5151   22.1657 H   0  0  0  0  0  0  0  0  0  0  0  0
    8.8516   -9.7676   22.7947 H   0  0  0  0  0  0  0  0  0  0  0  0
   10.2298   -7.8098   22.2949 H   0  0  0  0  0  0  0  0  0  0  0  0
   10.8417   -9.1862   21.3835 H   0  0  0  0  0  0  0  0  0  0  0  0
   12.9183   -9.6678   23.0594 H   0  0  0  0  0  0  0  0  0  0  0  0
   11.2923  -11.1472   23.6026 H   0  0  0  0  0  0  0  0  0  0  0  0
  1  2  1  0  0  0  0
  1  8  1  0  0  0  0
  1  9  1  0  0  0  0
  1 14  1  0  0  0  0
  2  5  1  0  0  0  0
  2  3  1  0  0  0  0
  2 10  1  6  0  0  0
  3  7  2  0  0  0  0
  3  4  1  0  0  0  0
  5  6  1  0  0  0  0
  5 11  1  0  0  0  0
  5 12  1  0  0  0  0
  6 13  1  0  0  0  0
M  CHG  1   1   1
M  END
$$$$
