DGX
 OpenBabel04041915053D

 81 86  0  0  1  0  0  0  0  0999 V2000
  -12.8781   30.5489   29.5955 C   0  0  0  0  0  0  0  0  0  0  0  0
  -14.2456   30.8322   29.0070 C   0  0  0  0  0  0  0  0  0  0  0  0
  -15.3570   30.5301   30.0112 C   0  0  2  0  0  0  0  0  0  0  0  0
  -15.1505   31.3021   31.2121 O   0  0  0  0  0  0  0  0  0  0  0  0
  -15.2945   29.0479   30.3680 C   0  0  0  0  0  0  0  0  0  0  0  0
  -13.9458   28.7380   31.0444 C   0  0  1  0  0  0  0  0  0  0  0  0
  -13.9141   27.2971   31.5522 C   0  0  0  0  0  0  0  0  0  0  0  0
  -13.8186   26.2893   30.4251 C   0  0  0  0  0  0  0  0  0  0  0  0
  -12.6121   26.5814   29.5336 C   0  0  2  0  0  0  0  0  0  0  0  0
  -12.6191   28.0441   29.0157 C   0  0  1  0  0  0  0  0  0  0  0  0
  -12.7352   29.1078   30.1470 C   0  0  1  0  0  0  0  0  0  0  0  0
  -11.3795   28.2690   28.1573 C   0  0  0  0  0  0  0  0  0  0  0  0
  -11.3975   27.3071   26.9973 C   0  0  1  0  0  0  0  0  0  0  0  0
  -10.3783   27.6350   26.0542 O   0  0  0  0  0  0  0  0  0  0  0  0
  -11.2815   25.8307   27.4568 C   0  0  1  0  0  0  0  0  0  0  0  0
  -12.4534   25.5008   28.4246 C   0  0  1  0  0  0  0  0  0  0  0  0
  -12.2621   24.2300   29.0816 O   0  0  0  0  0  0  0  0  0  0  0  0
  -13.6546   25.3075   27.4910 C   0  0  0  0  0  0  0  0  0  0  0  0
  -13.0905   24.8154   26.1457 C   0  0  0  0  0  0  0  0  0  0  0  0
  -11.5563   24.9989   26.1692 C   0  0  2  0  0  0  0  0  0  0  0  0
   -9.9066   25.5831   28.1041 C   0  0  0  0  0  0  0  0  0  0  0  0
  -11.4399   29.1995   30.9679 C   0  0  0  0  0  0  0  0  0  0  0  0
  -10.7383   23.7567   25.9536 C   0  0  0  0  0  0  0  0  0  0  0  0
  -11.1894   22.4071   26.3279 C   0  0  0  0  0  0  0  0  0  0  0  0
  -10.0826   21.5632   26.0875 O   0  0  0  0  0  0  0  0  0  0  0  0
   -9.5058   23.6979   25.4428 C   0  0  0  0  0  0  0  0  0  0  0  0
   -9.0496   22.2872   25.5285 C   0  0  0  0  0  0  0  0  0  0  0  0
   -7.9905   21.8410   25.2009 O   0  0  0  0  0  0  0  0  0  0  0  0
  -16.2781   32.0580   31.6588 C   0  0  1  0  0  0  0  0  0  0  0  0
  -16.4762   33.2687   30.7586 C   0  0  0  0  0  0  0  0  0  0  0  0
  -17.6912   34.0657   31.2016 C   0  0  2  0  0  0  0  0  0  0  0  0
  -17.4500   34.6834   32.4768 O   0  0  0  0  0  0  0  0  0  0  0  0
  -18.9152   33.1451   31.2618 C   0  0  2  0  0  0  0  0  0  0  0  0
  -19.9993   33.8499   31.8704 O   0  0  0  0  0  0  0  0  0  0  0  0
  -18.6296   31.8444   32.0244 C   0  0  2  0  0  0  0  0  0  0  0  0
  -17.4199   31.2245   31.6265 O   0  0  0  0  0  0  0  0  0  0  0  0
  -19.6784   30.7921   31.6924 C   0  0  0  0  0  0  0  0  0  0  0  0
  -12.1084   30.7379   28.8392 H   0  0  0  0  0  0  0  0  0  0  0  0
  -12.6890   31.2633   30.4125 H   0  0  0  0  0  0  0  0  0  0  0  0
  -14.3761   30.2160   28.1096 H   0  0  0  0  0  0  0  0  0  0  0  0
  -14.2947   31.8851   28.7147 H   0  0  0  0  0  0  0  0  0  0  0  0
  -16.3204   30.7546   29.5438 H   0  0  0  0  0  0  0  0  0  0  0  0
  -15.4271   28.4400   29.4620 H   0  0  0  0  0  0  0  0  0  0  0  0
  -16.1106   28.8098   31.0614 H   0  0  0  0  0  0  0  0  0  0  0  0
  -13.8963   29.3692   31.9316 H   0  0  0  0  0  0  0  0  0  0  0  0
  -14.8165   27.0946   32.1430 H   0  0  0  0  0  0  0  0  0  0  0  0
  -13.0476   27.1778   32.2138 H   0  0  0  0  0  0  0  0  0  0  0  0
  -14.7388   26.3107   29.8316 H   0  0  0  0  0  0  0  0  0  0  0  0
  -13.7224   25.2899   30.8620 H   0  0  0  0  0  0  0  0  0  0  0  0
  -11.7288   26.4941   30.1789 H   0  0  0  0  0  0  0  0  0  0  0  0
  -13.4952   28.1565   28.3694 H   0  0  0  0  0  0  0  0  0  0  0  0
  -10.4739   28.1229   28.7533 H   0  0  0  0  0  0  0  0  0  0  0  0
  -11.3615   29.2888   27.7762 H   0  0  0  0  0  0  0  0  0  0  0  0
  -12.3566   27.4268   26.4839 H   0  0  0  0  0  0  0  0  0  0  0  0
  -10.4921   28.5606   25.7792 H   0  0  0  0  0  0  0  0  0  0  0  0
  -13.0154   24.0619   29.6665 H   0  0  0  0  0  0  0  0  0  0  0  0
  -14.2045   26.2420   27.3403 H   0  0  0  0  0  0  0  0  0  0  0  0
  -14.3473   24.5547   27.8870 H   0  0  0  0  0  0  0  0  0  0  0  0
  -13.5309   25.4074   25.3270 H   0  0  0  0  0  0  0  0  0  0  0  0
  -13.3653   23.7708   25.9829 H   0  0  0  0  0  0  0  0  0  0  0  0
  -11.3273   25.6371   25.3047 H   0  0  0  0  0  0  0  0  0  0  0  0
   -9.0941   25.8181   27.4056 H   0  0  0  0  0  0  0  0  0  0  0  0
   -9.7971   24.5413   28.4261 H   0  0  0  0  0  0  0  0  0  0  0  0
   -9.7713   26.2119   28.9926 H   0  0  0  0  0  0  0  0  0  0  0  0
  -11.5375   29.9701   31.7440 H   0  0  0  0  0  0  0  0  0  0  0  0
  -10.5988   29.4942   30.3252 H   0  0  0  0  0  0  0  0  0  0  0  0
  -11.2070   28.2506   31.4412 H   0  0  0  0  0  0  0  0  0  0  0  0
  -12.0182   22.0724   25.7006 H   0  0  0  0  0  0  0  0  0  0  0  0
  -11.4616   22.3567   27.3789 H   0  0  0  0  0  0  0  0  0  0  0  0
   -8.9075   24.5154   25.0851 H   0  0  0  0  0  0  0  0  0  0  0  0
  -16.0878   32.3841   32.6950 H   0  0  0  0  0  0  0  0  0  0  0  0
  -16.6395   32.9201   29.7308 H   0  0  0  0  0  0  0  0  0  0  0  0
  -15.5777   33.8935   30.7715 H   0  0  0  0  0  0  0  0  0  0  0  0
  -17.8741   34.8678   30.4772 H   0  0  0  0  0  0  0  0  0  0  0  0
  -18.2228   35.2265   32.7103 H   0  0  0  0  0  0  0  0  0  0  0  0
  -19.1911   32.8929   30.2308 H   0  0  0  0  0  0  0  0  0  0  0  0
  -19.7540   34.0339   32.7943 H   0  0  0  0  0  0  0  0  0  0  0  0
  -18.6269   32.0326   33.1052 H   0  0  0  0  0  0  0  0  0  0  0  0
  -19.4639   29.8628   32.2376 H   0  0  0  0  0  0  0  0  0  0  0  0
  -19.6382   30.5561   30.6171 H   0  0  0  0  0  0  0  0  0  0  0  0
  -20.6803   31.1384   31.9449 H   0  0  0  0  0  0  0  0  0  0  0  0
  1 11  1  0  0  0  0
  1  2  1  0  0  0  0
  1 38  1  0  0  0  0
  1 39  1  0  0  0  0
  2  3  1  0  0  0  0
  2 40  1  0  0  0  0
  2 41  1  0  0  0  0
  3  5  1  0  0  0  0
  3  4  1  0  0  0  0
  3 42  1  6  0  0  0
  4 29  1  0  0  0  0
  5  6  1  0  0  0  0
  5 43  1  0  0  0  0
  5 44  1  0  0  0  0
  6 11  1  0  0  0  0
  6  7  1  0  0  0  0
  6 45  1  1  0  0  0
  7  8  1  0  0  0  0
  7 46  1  0  0  0  0
  7 47  1  0  0  0  0
  8  9  1  0  0  0  0
  8 48  1  0  0  0  0
  8 49  1  0  0  0  0
  9 16  1  0  0  0  0
  9 10  1  0  0  0  0
  9 50  1  1  0  0  0
 10 12  1  0  0  0  0
 10 11  1  0  0  0  0
 10 51  1  6  0  0  0
 11 22  1  1  0  0  0
 12 13  1  0  0  0  0
 12 52  1  0  0  0  0
 12 53  1  0  0  0  0
 13 15  1  0  0  0  0
 13 14  1  0  0  0  0
 13 54  1  6  0  0  0
 14 55  1  0  0  0  0
 15 21  1  1  0  0  0
 15 20  1  0  0  0  0
 15 16  1  0  0  0  0
 16 18  1  0  0  0  0
 16 17  1  1  0  0  0
 17 56  1  0  0  0  0
 18 19  1  0  0  0  0
 18 57  1  0  0  0  0
 18 58  1  0  0  0  0
 19 20  1  0  0  0  0
 19 59  1  0  0  0  0
 19 60  1  0  0  0  0
 20 23  1  0  0  0  0
 20 61  1  6  0  0  0
 21 62  1  0  0  0  0
 21 63  1  0  0  0  0
 21 64  1  0  0  0  0
 22 65  1  0  0  0  0
 22 66  1  0  0  0  0
 22 67  1  0  0  0  0
 23 26  2  0  0  0  0
 23 24  1  0  0  0  0
 24 25  1  0  0  0  0
 24 68  1  0  0  0  0
 24 69  1  0  0  0  0
 25 27  1  0  0  0  0
 26 27  1  0  0  0  0
 26 70  1  0  0  0  0
 27 28  2  0  0  0  0
 29 36  1  0  0  0  0
 29 30  1  0  0  0  0
 29 71  1  1  0  0  0
 30 31  1  0  0  0  0
 30 72  1  0  0  0  0
 30 73  1  0  0  0  0
 31 33  1  0  0  0  0
 31 32  1  0  0  0  0
 31 74  1  6  0  0  0
 32 75  1  0  0  0  0
 33 35  1  0  0  0  0
 33 34  1  0  0  0  0
 33 76  1  6  0  0  0
 34 77  1  0  0  0  0
 35 37  1  0  0  0  0
 35 36  1  0  0  0  0
 35 78  1  1  0  0  0
 37 79  1  0  0  0  0
 37 80  1  0  0  0  0
 37 81  1  0  0  0  0
M  END
$$$$
