DHH
 OpenBabel04041916563D

 27 26  0  0  1  0  0  0  0  0999 V2000
   88.5455   43.8001   -6.3147 N   0  3  0  0  0  0  0  0  0  0  0  0
   88.3492   43.8999   -7.8297 C   0  0  2  0  0  0  0  0  0  0  0  0
   88.8058   45.3050   -8.3516 C   0  0  0  0  0  0  0  0  0  0  0  0
   88.9618   45.4157   -9.5788 O   0  0  0  0  0  0  0  0  0  0  0  0
   88.9921   46.1032   -7.3794 O   0  0  0  0  0  0  0  0  0  0  0  0
   86.9045   43.5468   -8.1469 C   0  0  0  0  0  0  0  0  0  0  0  0
   85.9449   44.7298   -8.2375 C   0  0  0  0  0  0  0  0  0  0  0  0
   84.5295   44.2397   -8.5557 C   0  0  0  0  0  0  0  0  0  0  0  0
   83.5382   45.0178   -7.7020 C   0  0  0  0  0  0  0  0  0  0  0  0
   82.0899   44.8437   -8.1322 C   0  0  0  0  0  0  0  0  0  0  0  0
   81.3117   44.6396   -6.9760 O   0  0  0  0  0  0  0  0  0  0  0  0
   81.5875   46.0334   -8.6938 O   0  0  0  0  0  0  0  0  0  0  0  0
   88.2421   42.9098   -5.9198 H   0  0  0  0  0  0  0  0  0  0  0  0
   89.5338   43.9929   -6.1066 H   0  0  0  0  0  0  0  0  0  0  0  0
   89.0275   43.1458   -8.2418 H   0  0  0  0  0  0  0  0  0  0  0  0
   86.5235   42.8519   -7.3860 H   0  0  0  0  0  0  0  0  0  0  0  0
   86.8720   43.0018   -9.0958 H   0  0  0  0  0  0  0  0  0  0  0  0
   86.2524   45.4283   -9.0251 H   0  0  0  0  0  0  0  0  0  0  0  0
   85.9563   45.2912   -7.2944 H   0  0  0  0  0  0  0  0  0  0  0  0
   84.4366   43.1680   -8.3358 H   0  0  0  0  0  0  0  0  0  0  0  0
   84.3141   44.3708   -9.6222 H   0  0  0  0  0  0  0  0  0  0  0  0
   83.8087   46.0790   -7.7243 H   0  0  0  0  0  0  0  0  0  0  0  0
   83.6613   44.6604   -6.6711 H   0  0  0  0  0  0  0  0  0  0  0  0
   81.9647   44.0133   -8.8348 H   0  0  0  0  0  0  0  0  0  0  0  0
   81.5013   45.4240   -6.4299 H   0  0  0  0  0  0  0  0  0  0  0  0
   80.6391   45.8622   -8.8297 H   0  0  0  0  0  0  0  0  0  0  0  0
   88.0657   44.6100   -5.8936 H   0  0  0  0  0  0  0  0  0  0  0  0
  1  2  1  0  0  0  0
  1 13  1  0  0  0  0
  1 14  1  0  0  0  0
  1 27  1  0  0  0  0
  2  3  1  0  0  0  0
  2  6  1  0  0  0  0
  2 15  1  6  0  0  0
  3  4  2  0  0  0  0
  3  5  1  0  0  0  0
  6  7  1  0  0  0  0
  6 16  1  0  0  0  0
  6 17  1  0  0  0  0
  7  8  1  0  0  0  0
  7 18  1  0  0  0  0
  7 19  1  0  0  0  0
  8  9  1  0  0  0  0
  8 20  1  0  0  0  0
  8 21  1  0  0  0  0
  9 10  1  0  0  0  0
  9 22  1  0  0  0  0
  9 23  1  0  0  0  0
 10 11  1  0  0  0  0
 10 12  1  0  0  0  0
 10 24  1  0  0  0  0
 11 25  1  0  0  0  0
 12 26  1  0  0  0  0
M  CHG  1   1   1
M  END
$$$$
