DHT
 OpenBabel04041915033D

 49 52  0  0  1  0  0  0  0  0999 V2000
   27.6591    5.1815    4.5599 C   0  0  0  0  0  0  0  0  0  0  0  0
   26.8169    6.4484    4.6553 C   0  0  0  0  0  0  0  0  0  0  0  0
   25.5160    6.3099    3.9162 C   0  0  0  0  0  0  0  0  0  0  0  0
   24.9127    7.2835    3.4647 O   0  0  0  0  0  0  0  0  0  0  0  0
   24.8976    4.9724    3.8213 C   0  0  0  0  0  0  0  0  0  0  0  0
   25.5008    3.8683    4.3033 C   0  0  0  0  0  0  0  0  0  0  0  0
   24.7565    2.5551    4.2497 C   0  0  0  0  0  0  0  0  0  0  0  0
   25.6005    1.4525    3.6321 C   0  0  0  0  0  0  0  0  0  0  0  0
   26.9430    1.2991    4.3556 C   0  0  2  0  0  0  0  0  0  0  0  0
   27.7215    2.6509    4.2946 C   0  0  1  0  0  0  0  0  0  0  0  0
   26.9071    3.8594    4.9123 C   0  0  1  0  0  0  0  0  0  0  0  0
   29.1717    2.5060    4.8326 C   0  0  0  0  0  0  0  0  0  0  0  0
   29.9414    1.3203    4.2104 C   0  0  0  0  0  0  0  0  0  0  0  0
   29.1640    0.0051    4.3441 C   0  0  1  0  0  0  0  0  0  0  0  0
   27.7806    0.2014    3.6931 C   0  0  1  0  0  0  0  0  0  0  0  0
   27.2176   -1.2184    3.6239 C   0  0  0  0  0  0  0  0  0  0  0  0
   28.4514   -2.0927    3.3336 C   0  0  0  0  0  0  0  0  0  0  0  0
   29.6734   -1.1576    3.4600 C   0  0  2  0  0  0  0  0  0  0  0  0
   30.8213   -1.8190    3.9547 O   0  0  0  0  0  0  0  0  0  0  0  0
   29.1057   -0.4218    5.8336 C   0  0  0  0  0  0  0  0  0  0  0  0
   26.7735    3.7600    6.4497 C   0  0  0  0  0  0  0  0  0  0  0  0
   28.5365    5.3045    5.2043 H   0  0  0  0  0  0  0  0  0  0  0  0
   28.0377    5.1168    3.5312 H   0  0  0  0  0  0  0  0  0  0  0  0
   27.3747    7.2751    4.2045 H   0  0  0  0  0  0  0  0  0  0  0  0
   26.5991    6.7097    5.7003 H   0  0  0  0  0  0  0  0  0  0  0  0
   23.9090    4.9552    3.3768 H   0  0  0  0  0  0  0  0  0  0  0  0
   23.8328    2.6493    3.6646 H   0  0  0  0  0  0  0  0  0  0  0  0
   24.4519    2.2678    5.2626 H   0  0  0  0  0  0  0  0  0  0  0  0
   25.7736    1.6799    2.5703 H   0  0  0  0  0  0  0  0  0  0  0  0
   25.0365    0.5137    3.6642 H   0  0  0  0  0  0  0  0  0  0  0  0
   26.7496    1.0291    5.4013 H   0  0  0  0  0  0  0  0  0  0  0  0
   27.8346    2.8805    3.2237 H   0  0  0  0  0  0  0  0  0  0  0  0
   29.1632    2.3968    5.9200 H   0  0  0  0  0  0  0  0  0  0  0  0
   29.7389    3.4198    4.6224 H   0  0  0  0  0  0  0  0  0  0  0  0
   30.9295    1.2361    4.6804 H   0  0  0  0  0  0  0  0  0  0  0  0
   30.1222    1.5435    3.1515 H   0  0  0  0  0  0  0  0  0  0  0  0
   27.9371    0.5176    2.6469 H   0  0  0  0  0  0  0  0  0  0  0  0
   26.4578   -1.3251    2.8429 H   0  0  0  0  0  0  0  0  0  0  0  0
   26.7528   -1.5115    4.5722 H   0  0  0  0  0  0  0  0  0  0  0  0
   28.3992   -2.5091    2.3213 H   0  0  0  0  0  0  0  0  0  0  0  0
   28.5019   -2.9423    4.0239 H   0  0  0  0  0  0  0  0  0  0  0  0
   29.9320   -0.7862    2.4607 H   0  0  0  0  0  0  0  0  0  0  0  0
   30.6019   -2.2518    4.7961 H   0  0  0  0  0  0  0  0  0  0  0  0
   28.7293    0.3701    6.4840 H   0  0  0  0  0  0  0  0  0  0  0  0
   30.1027   -0.6892    6.2027 H   0  0  0  0  0  0  0  0  0  0  0  0
   28.4611   -1.2904    5.9964 H   0  0  0  0  0  0  0  0  0  0  0  0
   26.2251    4.6165    6.8607 H   0  0  0  0  0  0  0  0  0  0  0  0
   27.7502    3.7492    6.9457 H   0  0  0  0  0  0  0  0  0  0  0  0
   26.2369    2.8589    6.7652 H   0  0  0  0  0  0  0  0  0  0  0  0
  1  2  1  0  0  0  0
  1 11  1  0  0  0  0
  1 22  1  0  0  0  0
  1 23  1  0  0  0  0
  2  3  1  0  0  0  0
  2 24  1  0  0  0  0
  2 25  1  0  0  0  0
  3  4  2  0  0  0  0
  3  5  1  0  0  0  0
  5  6  2  0  0  0  0
  5 26  1  0  0  0  0
  6  7  1  0  0  0  0
  6 11  1  0  0  0  0
  7  8  1  0  0  0  0
  7 27  1  0  0  0  0
  7 28  1  0  0  0  0
  8  9  1  0  0  0  0
  8 29  1  0  0  0  0
  8 30  1  0  0  0  0
  9 10  1  0  0  0  0
  9 15  1  0  0  0  0
  9 31  1  1  0  0  0
 10 11  1  0  0  0  0
 10 12  1  0  0  0  0
 10 32  1  6  0  0  0
 11 21  1  1  0  0  0
 12 13  1  0  0  0  0
 12 33  1  0  0  0  0
 12 34  1  0  0  0  0
 13 14  1  0  0  0  0
 13 35  1  0  0  0  0
 13 36  1  0  0  0  0
 14 15  1  0  0  0  0
 14 18  1  0  0  0  0
 14 20  1  1  0  0  0
 15 16  1  0  0  0  0
 15 37  1  6  0  0  0
 16 17  1  0  0  0  0
 16 38  1  0  0  0  0
 16 39  1  0  0  0  0
 17 18  1  0  0  0  0
 17 40  1  0  0  0  0
 17 41  1  0  0  0  0
 18 19  1  0  0  0  0
 18 42  1  6  0  0  0
 19 43  1  0  0  0  0
 20 44  1  0  0  0  0
 20 45  1  0  0  0  0
 20 46  1  0  0  0  0
 21 47  1  0  0  0  0
 21 48  1  0  0  0  0
 21 49  1  0  0  0  0
M  END
$$$$
