DMP
 OpenBabel04041915443D

 80 84  0  0  1  0  0  0  0  0999 V2000
   -8.7767   15.2820   27.8546 C   0  0  0  0  0  0  0  0  0  0  0  0
   -8.6933   17.5900   26.8594 C   0  0  1  0  0  0  0  0  0  0  0  0
  -10.0599   18.2184   27.1670 C   0  0  1  0  0  0  0  0  0  0  0  0
  -10.5217   17.9612   28.5920 C   0  0  2  0  0  0  0  0  0  0  0  0
  -10.7671   16.4751   28.8801 C   0  0  1  0  0  0  0  0  0  0  0  0
   -8.0477   15.5038   25.6135 C   0  0  0  0  0  0  0  0  0  0  0  0
   -8.5127   15.9610   24.2599 C   0  0  0  0  0  0  0  0  0  0  0  0
   -9.8669   15.9567   23.9060 C   0  0  0  0  0  0  0  0  0  0  0  0
  -10.2557   16.3209   22.6164 C   0  0  0  0  0  0  0  0  0  0  0  0
   -9.2958   16.6859   21.6633 C   0  0  0  0  0  0  0  0  0  0  0  0
   -7.9413   16.6603   22.0186 C   0  0  0  0  0  0  0  0  0  0  0  0
   -7.5521   16.3084   23.3052 C   0  0  0  0  0  0  0  0  0  0  0  0
   -9.7044   17.0295   20.2592 C   0  0  0  0  0  0  0  0  0  0  0  0
   -7.5775   18.1211   27.8021 C   0  0  0  0  0  0  0  0  0  0  0  0
   -6.1994   17.9851   27.2045 C   0  0  0  0  0  0  0  0  0  0  0  0
   -5.2782   17.0762   27.7361 C   0  0  0  0  0  0  0  0  0  0  0  0
   -4.0353   16.9048   27.1281 C   0  0  0  0  0  0  0  0  0  0  0  0
   -3.7053   17.6390   25.9892 C   0  0  0  0  0  0  0  0  0  0  0  0
   -4.6095   18.5603   25.4656 C   0  0  0  0  0  0  0  0  0  0  0  0
   -5.8474   18.7410   26.0769 C   0  0  0  0  0  0  0  0  0  0  0  0
  -11.8804   15.8784   27.9726 C   0  0  0  0  0  0  0  0  0  0  0  0
  -12.4194   14.5929   28.5469 C   0  0  0  0  0  0  0  0  0  0  0  0
  -13.0467   14.5986   29.8026 C   0  0  0  0  0  0  0  0  0  0  0  0
  -13.3195   13.4000   30.4536 C   0  0  0  0  0  0  0  0  0  0  0  0
  -13.0110   12.1909   29.8342 C   0  0  0  0  0  0  0  0  0  0  0  0
  -12.4596   12.1785   28.5526 C   0  0  0  0  0  0  0  0  0  0  0  0
  -12.1668   13.3767   27.9056 C   0  0  0  0  0  0  0  0  0  0  0  0
   -9.4165   14.7013   30.0626 C   0  0  0  0  0  0  0  0  0  0  0  0
   -9.5557   15.2993   31.4303 C   0  0  0  0  0  0  0  0  0  0  0  0
  -10.3185   14.6256   32.3869 C   0  0  0  0  0  0  0  0  0  0  0  0
  -10.4325   15.1320   33.6775 C   0  0  0  0  0  0  0  0  0  0  0  0
   -9.7810   16.3176   34.0340 C   0  0  0  0  0  0  0  0  0  0  0  0
   -8.9944   16.9806   33.0855 C   0  0  0  0  0  0  0  0  0  0  0  0
   -8.8733   16.4726   31.7883 C   0  0  0  0  0  0  0  0  0  0  0  0
   -9.8648   16.8305   35.4431 C   0  0  0  0  0  0  0  0  0  0  0  0
   -8.7462   16.1098   26.7501 N   0  0  0  0  0  0  0  0  0  0  0  0
   -9.5217   15.6597   28.9532 N   0  0  0  0  0  0  0  0  0  0  0  0
   -8.1448   14.2213   27.8558 O   0  0  0  0  0  0  0  0  0  0  0  0
   -9.9968   19.6451   26.9690 O   0  0  0  0  0  0  0  0  0  0  0  0
  -11.7415   18.7003   28.8096 O   0  0  0  0  0  0  0  0  0  0  0  0
   -8.8481   18.0386   19.7364 O   0  0  0  0  0  0  0  0  0  0  0  0
  -11.1554   16.5870   35.9812 O   0  0  0  0  0  0  0  0  0  0  0  0
   -8.4591   17.9678   25.8571 H   0  0  0  0  0  0  0  0  0  0  0  0
  -10.8006   17.8546   26.4455 H   0  0  0  0  0  0  0  0  0  0  0  0
   -9.8030   18.3621   29.3163 H   0  0  0  0  0  0  0  0  0  0  0  0
  -11.1789   16.4914   29.8953 H   0  0  0  0  0  0  0  0  0  0  0  0
   -8.1759   14.4129   25.6174 H   0  0  0  0  0  0  0  0  0  0  0  0
   -6.9755   15.6844   25.7485 H   0  0  0  0  0  0  0  0  0  0  0  0
  -10.6219   15.6572   24.6290 H   0  0  0  0  0  0  0  0  0  0  0  0
  -11.3125   16.3082   22.3587 H   0  0  0  0  0  0  0  0  0  0  0  0
   -7.1775   16.9172   21.2874 H   0  0  0  0  0  0  0  0  0  0  0  0
   -6.4943   16.2943   23.5578 H   0  0  0  0  0  0  0  0  0  0  0  0
  -10.7300   17.4112   20.2330 H   0  0  0  0  0  0  0  0  0  0  0  0
   -9.6320   16.1366   19.6278 H   0  0  0  0  0  0  0  0  0  0  0  0
   -7.6081   17.6211   28.7763 H   0  0  0  0  0  0  0  0  0  0  0  0
   -7.7297   19.1874   28.0147 H   0  0  0  0  0  0  0  0  0  0  0  0
   -5.5321   16.4788   28.6093 H   0  0  0  0  0  0  0  0  0  0  0  0
   -3.3297   16.1867   27.5368 H   0  0  0  0  0  0  0  0  0  0  0  0
   -2.7425   17.4917   25.5084 H   0  0  0  0  0  0  0  0  0  0  0  0
   -4.3574   19.1321   24.5767 H   0  0  0  0  0  0  0  0  0  0  0  0
   -6.5496   19.4584   25.6552 H   0  0  0  0  0  0  0  0  0  0  0  0
  -11.5117   15.7091   26.9553 H   0  0  0  0  0  0  0  0  0  0  0  0
  -12.7219   16.5767   27.8786 H   0  0  0  0  0  0  0  0  0  0  0  0
  -13.2492   15.5380   30.3149 H   0  0  0  0  0  0  0  0  0  0  0  0
  -13.7281   13.4155   31.4603 H   0  0  0  0  0  0  0  0  0  0  0  0
  -13.1862   11.2559   30.3576 H   0  0  0  0  0  0  0  0  0  0  0  0
  -12.2163   11.2348   28.0722 H   0  0  0  0  0  0  0  0  0  0  0  0
  -11.6813   13.3554   26.9323 H   0  0  0  0  0  0  0  0  0  0  0  0
   -8.4417   14.1953   30.0577 H   0  0  0  0  0  0  0  0  0  0  0  0
  -10.1567   13.9186   29.8990 H   0  0  0  0  0  0  0  0  0  0  0  0
  -10.8292   13.7001   32.1312 H   0  0  0  0  0  0  0  0  0  0  0  0
  -11.0308   14.5936   34.4040 H   0  0  0  0  0  0  0  0  0  0  0  0
   -8.4594   17.8922   33.3399 H   0  0  0  0  0  0  0  0  0  0  0  0
   -8.2544   16.9863   31.0644 H   0  0  0  0  0  0  0  0  0  0  0  0
   -9.6809   17.9091   35.4788 H   0  0  0  0  0  0  0  0  0  0  0  0
   -9.1155   16.3148   36.0583 H   0  0  0  0  0  0  0  0  0  0  0  0
  -10.9189   19.9415   26.8572 H   0  0  0  0  0  0  0  0  0  0  0  0
  -11.4810   19.6357   28.8931 H   0  0  0  0  0  0  0  0  0  0  0  0
   -9.1368   18.2050   18.8274 H   0  0  0  0  0  0  0  0  0  0  0  0
  -11.1447   16.9043   36.8955 H   0  0  0  0  0  0  0  0  0  0  0  0
  1 38  2  0  0  0  0
  1 37  1  0  0  0  0
  1 36  1  0  0  0  0
  2 36  1  0  0  0  0
  2 14  1  0  0  0  0
  2  3  1  0  0  0  0
  2 43  1  6  0  0  0
  3 39  1  0  0  0  0
  3  4  1  0  0  0  0
  3 44  1  6  0  0  0
  4 40  1  0  0  0  0
  4  5  1  0  0  0  0
  4 45  1  1  0  0  0
  5 37  1  0  0  0  0
  5 21  1  0  0  0  0
  5 46  1  1  0  0  0
  6 36  1  0  0  0  0
  6  7  1  0  0  0  0
  6 47  1  0  0  0  0
  6 48  1  0  0  0  0
  7 12  2  0  0  0  0
  7  8  1  0  0  0  0
  8  9  2  0  0  0  0
  8 49  1  0  0  0  0
  9 10  1  0  0  0  0
  9 50  1  0  0  0  0
 10 13  1  0  0  0  0
 10 11  2  0  0  0  0
 11 12  1  0  0  0  0
 11 51  1  0  0  0  0
 12 52  1  0  0  0  0
 13 41  1  0  0  0  0
 13 53  1  0  0  0  0
 13 54  1  0  0  0  0
 14 15  1  0  0  0  0
 14 55  1  0  0  0  0
 14 56  1  0  0  0  0
 15 20  2  0  0  0  0
 15 16  1  0  0  0  0
 16 17  2  0  0  0  0
 16 57  1  0  0  0  0
 17 18  1  0  0  0  0
 17 58  1  0  0  0  0
 18 19  2  0  0  0  0
 18 59  1  0  0  0  0
 19 20  1  0  0  0  0
 19 60  1  0  0  0  0
 20 61  1  0  0  0  0
 21 22  1  0  0  0  0
 21 62  1  0  0  0  0
 21 63  1  0  0  0  0
 22 27  2  0  0  0  0
 22 23  1  0  0  0  0
 23 24  2  0  0  0  0
 23 64  1  0  0  0  0
 24 25  1  0  0  0  0
 24 65  1  0  0  0  0
 25 26  2  0  0  0  0
 25 66  1  0  0  0  0
 26 27  1  0  0  0  0
 26 67  1  0  0  0  0
 27 68  1  0  0  0  0
 28 37  1  0  0  0  0
 28 29  1  0  0  0  0
 28 69  1  0  0  0  0
 28 70  1  0  0  0  0
 29 34  2  0  0  0  0
 29 30  1  0  0  0  0
 30 31  2  0  0  0  0
 30 71  1  0  0  0  0
 31 32  1  0  0  0  0
 31 72  1  0  0  0  0
 32 35  1  0  0  0  0
 32 33  2  0  0  0  0
 33 34  1  0  0  0  0
 33 73  1  0  0  0  0
 34 74  1  0  0  0  0
 35 42  1  0  0  0  0
 35 75  1  0  0  0  0
 35 76  1  0  0  0  0
 39 77  1  0  0  0  0
 40 78  1  0  0  0  0
 41 79  1  0  0  0  0
 42 80  1  0  0  0  0
M  END
$$$$
