DQU
 OpenBabel04041916423D

 21 22  0  0  0  0  0  0  0  0999 V2000
   18.2386   17.0487   19.2310 C   0  0  0  0  0  0  0  0  0  0  0  0
   19.1497   17.3652   18.2371 N   0  0  0  0  0  0  0  0  0  0  0  0
   16.9926   16.5126   18.9045 C   0  0  0  0  0  0  0  0  0  0  0  0
   16.0413   16.2332   19.9032 C   0  0  0  0  0  0  0  0  0  0  0  0
   16.3154   16.5073   21.2476 C   0  0  0  0  0  0  0  0  0  0  0  0
   15.3236   16.2629   22.2185 N   0  0  0  0  0  0  0  0  0  0  0  0
   15.5908   16.5453   23.4595 C   0  0  0  0  0  0  0  0  0  0  0  0
   14.6688   16.3651   24.4278 N   0  0  0  0  0  0  0  0  0  0  0  0
   16.8050   17.0390   23.8481 N   0  3  0  0  0  0  0  0  0  0  0  0
   17.8376   17.2957   22.9816 C   0  0  0  0  0  0  0  0  0  0  0  0
   18.9226   17.7132   23.3755 O   0  0  0  0  0  0  0  0  0  0  0  0
   17.5631   17.0352   21.5610 C   0  0  0  0  0  0  0  0  0  0  0  0
   18.5136   17.3251   20.5730 C   0  0  0  0  0  0  0  0  0  0  0  0
   19.0172   17.0382   17.2887 H   0  0  0  0  0  0  0  0  0  0  0  0
   20.0387   17.7892   18.4690 H   0  0  0  0  0  0  0  0  0  0  0  0
   16.7322   16.3261   17.8657 H   0  0  0  0  0  0  0  0  0  0  0  0
   15.0787   15.8191   19.6239 H   0  0  0  0  0  0  0  0  0  0  0  0
   13.7724   15.9812   24.1618 H   0  0  0  0  0  0  0  0  0  0  0  0
   14.8382   16.5456   25.4019 H   0  0  0  0  0  0  0  0  0  0  0  0
   16.9849   17.2245   24.8206 H   0  0  0  0  0  0  0  0  0  0  0  0
   19.4641   17.7715   20.8531 H   0  0  0  0  0  0  0  0  0  0  0  0
  1  2  1  0  0  0  0
  1  3  2  0  0  0  0
  1 13  1  0  0  0  0
  2 14  1  0  0  0  0
  2 15  1  0  0  0  0
  3  4  1  0  0  0  0
  3 16  1  0  0  0  0
  4  5  2  0  0  0  0
  4 17  1  0  0  0  0
  5  6  1  0  0  0  0
  5 12  1  0  0  0  0
  6  7  2  0  0  0  0
  7  8  1  0  0  0  0
  7  9  1  0  0  0  0
  8 18  1  0  0  0  0
  8 19  1  0  0  0  0
  9 10  1  0  0  0  0
  9 20  1  0  0  0  0
 10 11  2  0  0  0  0
 10 12  1  0  0  0  0
 12 13  2  0  0  0  0
 13 21  1  0  0  0  0
M  CHG  1   9   1
M  END
$$$$
