DSN
 OpenBabel04041916193D

 14 13  0  0  1  0  0  0  0  0999 V2000
   21.0681   41.7727   40.4762 N   0  3  0  0  0  0  0  0  0  0  0  0
   21.2881   40.3148   40.1327 C   0  0  1  0  0  0  0  0  0  0  0  0
   22.7065   40.0496   39.5667 C   0  0  0  0  0  0  0  0  0  0  0  0
   22.9863   38.8539   39.3153 O   0  0  0  0  0  0  0  0  0  0  0  0
   23.3678   41.1175   39.4647 O   0  0  0  0  0  0  0  0  0  0  0  0
   21.0019   39.4617   41.3617 C   0  0  0  0  0  0  0  0  0  0  0  0
   21.7110   39.9437   42.5047 O   0  0  0  0  0  0  0  0  0  0  0  0
   20.1496   41.9551   40.8785 H   0  0  0  0  0  0  0  0  0  0  0  0
   21.8188   42.0368   41.1284 H   0  0  0  0  0  0  0  0  0  0  0  0
   20.5617   40.0755   39.3560 H   0  0  0  0  0  0  0  0  0  0  0  0
   21.2339   38.4059   41.1910 H   0  0  0  0  0  0  0  0  0  0  0  0
   19.9350   39.5273   41.6084 H   0  0  0  0  0  0  0  0  0  0  0  0
   22.6616   39.7753   42.3359 H   0  0  0  0  0  0  0  0  0  0  0  0
   21.2637   42.3101   39.6236 H   0  0  0  0  0  0  0  0  0  0  0  0
  1  2  1  0  0  0  0
  1  8  1  0  0  0  0
  1  9  1  0  0  0  0
  1 14  1  0  0  0  0
  2  3  1  0  0  0  0
  2  6  1  0  0  0  0
  2 10  1  6  0  0  0
  3  4  2  0  0  0  0
  3  5  1  0  0  0  0
  6  7  1  0  0  0  0
  6 11  1  0  0  0  0
  6 12  1  0  0  0  0
  7 13  1  0  0  0  0
M  CHG  1   1   1
M  END
$$$$
