DSS
 OpenBabel04041914173D

 14 13  0  0  0  0  0  0  0  0999 V2000
   60.7042   -5.5081   -0.2506 S   0  0  1  0  0  0  0  0  0  0  0  0
   60.1599   -6.5289    0.7064 O   0  0  0  0  0  0  0  0  0  0  0  0
   59.8299   -5.7137   -1.8203 C   0  0  0  0  0  0  0  0  0  0  0  0
   59.9429   -3.9106    0.1732 C   0  0  0  0  0  0  0  0  0  0  0  0
   60.5211   -2.5409   -0.8693 S   0  0  0  0  0  0  0  0  0  0  0  0
   60.0464   -1.1886    0.2165 C   0  0  0  0  0  0  0  0  0  0  0  0
   60.1462   -6.6569   -2.2676 H   0  0  0  0  0  0  0  0  0  0  0  0
   60.0867   -4.9000   -2.5048 H   0  0  0  0  0  0  0  0  0  0  0  0
   58.7537   -5.7332   -1.6455 H   0  0  0  0  0  0  0  0  0  0  0  0
   60.2157   -3.7083    1.2124 H   0  0  0  0  0  0  0  0  0  0  0  0
   58.8594   -4.0111    0.1032 H   0  0  0  0  0  0  0  0  0  0  0  0
   60.2943   -0.2341   -0.2609 H   0  0  0  0  0  0  0  0  0  0  0  0
   60.5939   -1.2585    1.1593 H   0  0  0  0  0  0  0  0  0  0  0  0
   58.9696   -1.2098    0.4064 H   0  0  0  0  0  0  0  0  0  0  0  0
  1  4  1  1  0  0  0
  1  3  1  0  0  0  0
  1  2  2  0  0  0  0
  3  7  1  0  0  0  0
  3  8  1  0  0  0  0
  3  9  1  0  0  0  0
  4  5  1  0  0  0  0
  4 10  1  0  0  0  0
  4 11  1  0  0  0  0
  5  6  1  0  0  0  0
  6 12  1  0  0  0  0
  6 13  1  0  0  0  0
  6 14  1  0  0  0  0
M  END
$$$$
