EG2
 OpenBabel04041914133D

 44 44  0  0  0  0  0  0  0  0999 V2000
   -6.0743    0.9527   17.1472 S   0  0  0  0  0  0  0  0  0  0  0  0
   -5.4423    1.0375   18.4432 O   0  0  0  0  0  0  0  0  0  0  0  0
   -7.4886    0.8211   16.9580 O   0  0  0  0  0  0  0  0  0  0  0  0
   -5.3818   -0.3099   16.3145 N   0  0  0  0  0  0  0  0  0  0  0  0
   -4.6647    4.3914   14.5916 C   0  0  0  0  0  0  0  0  0  0  0  0
   -3.7791    3.3773   14.9170 C   0  0  0  0  0  0  0  0  0  0  0  0
   -4.1941    2.3165   15.7104 C   0  0  0  0  0  0  0  0  0  0  0  0
   -5.5066    2.2993   16.1784 C   0  0  0  0  0  0  0  0  0  0  0  0
   -6.4200    3.2867   15.8268 C   0  0  0  0  0  0  0  0  0  0  0  0
   -5.9982    4.3458   15.0360 C   0  0  0  0  0  0  0  0  0  0  0  0
   -4.2580    5.5563   13.7520 C   0  0  0  0  0  0  0  0  0  0  0  0
   -5.0628    6.4138   13.4462 O   0  0  0  0  0  0  0  0  0  0  0  0
   -2.9396    5.5730   13.3524 N   0  0  0  0  0  0  0  0  0  0  0  0
   -2.4289    6.5760   12.4533 C   0  0  0  0  0  0  0  0  0  0  0  0
   -2.2195    7.9403   13.0827 C   0  0  0  0  0  0  0  0  0  0  0  0
   -1.3200    7.8729   14.1951 O   0  0  0  0  0  0  0  0  0  0  0  0
   -1.5123    8.9923   15.0561 C   0  0  0  0  0  0  0  0  0  0  0  0
   -0.3883    9.9844   14.8968 C   0  0  0  0  0  0  0  0  0  0  0  0
   -0.7814   11.2268   15.4763 O   0  0  0  0  0  0  0  0  0  0  0  0
   -0.1541   12.2802   14.7771 C   0  0  0  0  0  0  0  0  0  0  0  0
    0.1455   13.3902   15.7507 C   0  0  0  0  0  0  0  0  0  0  0  0
    0.3948   14.6256   14.9856 N   0  3  0  0  0  0  0  0  0  0  0  0
   -5.4211   -1.2176   16.7581 H   0  0  0  0  0  0  0  0  0  0  0  0
   -4.7841   -0.1166   15.5211 H   0  0  0  0  0  0  0  0  0  0  0  0
   -2.7513    3.3681   14.5866 H   0  0  0  0  0  0  0  0  0  0  0  0
   -3.4918    1.5182   15.9383 H   0  0  0  0  0  0  0  0  0  0  0  0
   -7.4573    3.2301   16.1638 H   0  0  0  0  0  0  0  0  0  0  0  0
   -6.7057    5.1249   14.7785 H   0  0  0  0  0  0  0  0  0  0  0  0
   -2.2908    4.8584   13.6349 H   0  0  0  0  0  0  0  0  0  0  0  0
   -3.1433    6.6843   11.6333 H   0  0  0  0  0  0  0  0  0  0  0  0
   -1.4763    6.1950   12.0815 H   0  0  0  0  0  0  0  0  0  0  0  0
   -3.1886    8.3466   13.3883 H   0  0  0  0  0  0  0  0  0  0  0  0
   -1.7807    8.5945   12.3230 H   0  0  0  0  0  0  0  0  0  0  0  0
   -1.5426    8.6459   16.0915 H   0  0  0  0  0  0  0  0  0  0  0  0
   -2.4604    9.5027   14.8544 H   0  0  0  0  0  0  0  0  0  0  0  0
   -0.1566   10.1158   13.8333 H   0  0  0  0  0  0  0  0  0  0  0  0
    0.5194    9.6438   15.4067 H   0  0  0  0  0  0  0  0  0  0  0  0
   -0.8292   12.6268   13.9857 H   0  0  0  0  0  0  0  0  0  0  0  0
    0.7904   11.9485   14.3326 H   0  0  0  0  0  0  0  0  0  0  0  0
    1.0508   13.1570   16.3195 H   0  0  0  0  0  0  0  0  0  0  0  0
   -0.6916   13.5716   16.4287 H   0  0  0  0  0  0  0  0  0  0  0  0
    0.6150   15.4006   15.6248 H   0  0  0  0  0  0  0  0  0  0  0  0
    1.1809   14.5129   14.3322 H   0  0  0  0  0  0  0  0  0  0  0  0
   -0.4375   14.8914   14.4418 H   0  0  0  0  0  0  0  0  0  0  0  0
  1  8  1  0  0  0  0
  1  4  1  0  0  0  0
  1  3  2  0  0  0  0
  1  2  2  0  0  0  0
  4 23  1  0  0  0  0
  4 24  1  0  0  0  0
  5  6  1  0  0  0  0
  5 11  1  0  0  0  0
  5 10  2  0  0  0  0
  6  7  2  0  0  0  0
  6 25  1  0  0  0  0
  7  8  1  0  0  0  0
  7 26  1  0  0  0  0
  8  9  2  0  0  0  0
  9 10  1  0  0  0  0
  9 27  1  0  0  0  0
 10 28  1  0  0  0  0
 11 13  1  0  0  0  0
 11 12  2  0  0  0  0
 13 14  1  0  0  0  0
 13 29  1  0  0  0  0
 14 15  1  0  0  0  0
 14 30  1  0  0  0  0
 14 31  1  0  0  0  0
 15 16  1  0  0  0  0
 15 32  1  0  0  0  0
 15 33  1  0  0  0  0
 16 17  1  0  0  0  0
 17 18  1  0  0  0  0
 17 34  1  0  0  0  0
 17 35  1  0  0  0  0
 18 19  1  0  0  0  0
 18 36  1  0  0  0  0
 18 37  1  0  0  0  0
 19 20  1  0  0  0  0
 20 21  1  0  0  0  0
 20 38  1  0  0  0  0
 20 39  1  0  0  0  0
 21 22  1  0  0  0  0
 21 40  1  0  0  0  0
 21 41  1  0  0  0  0
 22 42  1  0  0  0  0
 22 43  1  0  0  0  0
 22 44  1  0  0  0  0
M  CHG  1  22   1
M  END
$$$$
