EIN
 OpenBabel04041918013D

 46 47  0  0  1  0  0  0  0  0999 V2000
    9.3719   20.1915   12.2481 C   0  0  0  0  0  0  0  0  0  0  0  0
    9.7915   18.8537   12.5331 C   0  0  0  0  0  0  0  0  0  0  0  0
    9.1340   17.7185   11.9566 C   0  0  0  0  0  0  0  0  0  0  0  0
    8.0457   17.8887   11.0748 C   0  0  0  0  0  0  0  0  0  0  0  0
    7.6039   19.2080   10.7710 C   0  0  0  0  0  0  0  0  0  0  0  0
    8.2633   20.3285   11.3546 C   0  0  0  0  0  0  0  0  0  0  0  0
    7.3641   16.8282   10.4732 O   0  0  0  0  0  0  0  0  0  0  0  0
    7.9023   15.5134   10.7175 C   0  0  0  0  0  0  0  0  0  0  0  0
   10.0801   21.3978   12.8532 C   0  0  0  0  0  0  0  0  0  0  0  0
   11.4933   21.4070   13.0242 C   0  0  0  0  0  0  0  0  0  0  0  0
   12.1834   22.5058   13.5801 C   0  0  0  0  0  0  0  0  0  0  0  0
   11.4608   23.6499   14.0019 C   0  0  0  0  0  0  0  0  0  0  0  0
   10.0512   23.7100   13.8163 C   0  0  0  0  0  0  0  0  0  0  0  0
    9.3741   22.5763   13.2553 C   0  0  0  0  0  0  0  0  0  0  0  0
   12.3692   25.0949   14.6712 S   0  0  0  0  0  0  0  0  0  0  0  0
   11.7218   26.2822   14.2523 O   0  0  0  0  0  0  0  0  0  0  0  0
   13.7778   24.9123   14.2825 O   0  0  0  0  0  0  0  0  0  0  0  0
   12.3202   24.9381   16.3587 N   0  0  0  0  0  0  0  0  0  0  0  0
   11.2155   25.5029   17.2464 C   0  0  2  0  0  0  0  0  0  0  0  0
   11.8482   26.2603   18.4704 C   0  0  0  0  0  0  0  0  0  0  0  0
   10.8884   27.2052   19.1912 C   0  0  0  0  0  0  0  0  0  0  0  0
   12.9269   27.2302   17.9975 C   0  0  0  0  0  0  0  0  0  0  0  0
    9.9855   23.9997   17.9497 P   0  0  0  0  0  0  0  0  0  0  0  0
    8.5997   24.5781   17.7497 O   0  0  0  0  0  0  0  0  0  0  0  0
   10.3839   23.7884   19.4102 O   0  0  0  0  0  0  0  0  0  0  0  0
   10.3236   22.8496   17.0183 O   0  0  0  0  0  0  0  0  0  0  0  0
   10.6349   18.6868   13.2301 H   0  0  0  0  0  0  0  0  0  0  0  0
    9.5097   16.7280   12.2326 H   0  0  0  0  0  0  0  0  0  0  0  0
    6.7606   19.3889   10.0955 H   0  0  0  0  0  0  0  0  0  0  0  0
    7.9154   21.3568   11.1044 H   0  0  0  0  0  0  0  0  0  0  0  0
    7.3211   14.7165   10.2191 H   0  0  0  0  0  0  0  0  0  0  0  0
    7.8914   15.2941   11.7922 H   0  0  0  0  0  0  0  0  0  0  0  0
    8.9282   15.4551   10.3329 H   0  0  0  0  0  0  0  0  0  0  0  0
   12.0890   20.5263   12.7198 H   0  0  0  0  0  0  0  0  0  0  0  0
   13.2709   22.4673   13.7091 H   0  0  0  0  0  0  0  0  0  0  0  0
    9.4890   24.5802   14.1561 H   0  0  0  0  0  0  0  0  0  0  0  0
    8.2802   22.6275   13.1653 H   0  0  0  0  0  0  0  0  0  0  0  0
   12.9757   24.3556   16.8549 H   0  0  0  0  0  0  0  0  0  0  0  0
   10.5992   26.1853   16.6525 H   0  0  0  0  0  0  0  0  0  0  0  0
   12.2703   25.5334   19.1786 H   0  0  0  0  0  0  0  0  0  0  0  0
   11.3987   27.7053   20.0352 H   0  0  0  0  0  0  0  0  0  0  0  0
   10.0152   26.6850   19.5829 H   0  0  0  0  0  0  0  0  0  0  0  0
   10.5525   27.9989   18.5109 H   0  0  0  0  0  0  0  0  0  0  0  0
   13.7155   26.7071   17.4602 H   0  0  0  0  0  0  0  0  0  0  0  0
   13.3639   27.7512   18.8573 H   0  0  0  0  0  0  0  0  0  0  0  0
   12.4696   27.9753   17.3384 H   0  0  0  0  0  0  0  0  0  0  0  0
  1  2  2  0  0  0  0
  1  6  1  0  0  0  0
  1  9  1  0  0  0  0
  2  3  1  0  0  0  0
  2 27  1  0  0  0  0
  3  4  2  0  0  0  0
  3 28  1  0  0  0  0
  4  5  1  0  0  0  0
  4  7  1  0  0  0  0
  5  6  2  0  0  0  0
  5 29  1  0  0  0  0
  6 30  1  0  0  0  0
  7  8  1  0  0  0  0
  8 31  1  0  0  0  0
  8 32  1  0  0  0  0
  8 33  1  0  0  0  0
  9 10  2  0  0  0  0
  9 14  1  0  0  0  0
 10 11  1  0  0  0  0
 10 34  1  0  0  0  0
 11 12  2  0  0  0  0
 11 35  1  0  0  0  0
 12 13  1  0  0  0  0
 12 15  1  0  0  0  0
 13 14  2  0  0  0  0
 13 36  1  0  0  0  0
 14 37  1  0  0  0  0
 15 16  2  0  0  0  0
 15 17  2  0  0  0  0
 15 18  1  0  0  0  0
 18 19  1  0  0  0  0
 18 38  1  0  0  0  0
 19 20  1  0  0  0  0
 19 23  1  0  0  0  0
 19 39  1  6  0  0  0
 20 21  1  0  0  0  0
 20 22  1  0  0  0  0
 20 40  1  0  0  0  0
 21 41  1  0  0  0  0
 21 42  1  0  0  0  0
 21 43  1  0  0  0  0
 22 44  1  0  0  0  0
 22 45  1  0  0  0  0
 22 46  1  0  0  0  0
 23 24  2  0  0  0  0
 23 25  1  0  0  0  0
 23 26  1  0  0  0  0
M  END
$$$$
