ELA
 OpenBabel04041914573D

 55 54  0  0  0  0  0  0  0  0999 V2000
   19.6585   33.3103   53.6876 C   0  0  0  0  0  0  0  0  0  0  0  0
   18.8772   33.3509   52.3778 C   0  0  0  0  0  0  0  0  0  0  0  0
   19.0453   34.3629   51.6468 O   0  0  0  0  0  0  0  0  0  0  0  0
   18.1342   32.3346   52.1787 O   0  0  0  0  0  0  0  0  0  0  0  0
   20.8232   34.2951   53.7527 C   0  0  0  0  0  0  0  0  0  0  0  0
   21.6362   34.1474   55.0404 C   0  0  0  0  0  0  0  0  0  0  0  0
   22.7834   35.1680   55.0884 C   0  0  0  0  0  0  0  0  0  0  0  0
   23.1778   35.5656   56.5102 C   0  0  0  0  0  0  0  0  0  0  0  0
   23.7516   34.4170   57.3604 C   0  0  0  0  0  0  0  0  0  0  0  0
   23.4793   34.6241   58.8591 C   0  0  0  0  0  0  0  0  0  0  0  0
   22.0141   34.3329   59.1357 C   0  0  0  0  0  0  0  0  0  0  0  0
   21.5318   34.7139   60.5278 C   0  0  0  0  0  0  0  0  0  0  0  0
   20.0179   34.5075   60.6841 C   0  0  0  0  0  0  0  0  0  0  0  0
   19.1868   34.8638   59.4453 C   0  0  0  0  0  0  0  0  0  0  0  0
   17.8335   34.1644   59.4354 C   0  0  0  0  0  0  0  0  0  0  0  0
   17.1287   34.2783   58.0797 C   0  0  0  0  0  0  0  0  0  0  0  0
   17.0507   35.7198   57.6200 C   0  0  0  0  0  0  0  0  0  0  0  0
   16.2160   35.9200   56.3624 C   0  0  0  0  0  0  0  0  0  0  0  0
   15.9742   37.4093   56.0814 C   0  0  0  0  0  0  0  0  0  0  0  0
   17.1463   38.2995   56.4772 C   0  0  0  0  0  0  0  0  0  0  0  0
   18.9495   33.5187   54.4977 H   0  0  0  0  0  0  0  0  0  0  0  0
   20.0387   32.2866   53.8351 H   0  0  0  0  0  0  0  0  0  0  0  0
   20.4251   35.3193   53.6966 H   0  0  0  0  0  0  0  0  0  0  0  0
   21.4779   34.1597   52.8864 H   0  0  0  0  0  0  0  0  0  0  0  0
   22.0517   33.1335   55.0961 H   0  0  0  0  0  0  0  0  0  0  0  0
   20.9725   34.2701   55.9046 H   0  0  0  0  0  0  0  0  0  0  0  0
   22.4771   36.0859   54.5708 H   0  0  0  0  0  0  0  0  0  0  0  0
   23.6514   34.7748   54.5485 H   0  0  0  0  0  0  0  0  0  0  0  0
   22.3016   36.0262   56.9763 H   0  0  0  0  0  0  0  0  0  0  0  0
   23.9276   36.3646   56.4639 H   0  0  0  0  0  0  0  0  0  0  0  0
   24.8316   34.3663   57.1954 H   0  0  0  0  0  0  0  0  0  0  0  0
   23.3401   33.4505   57.0542 H   0  0  0  0  0  0  0  0  0  0  0  0
   23.7178   35.6546   59.1441 H   0  0  0  0  0  0  0  0  0  0  0  0
   24.1025   33.9539   59.4590 H   0  0  0  0  0  0  0  0  0  0  0  0
   21.7857   33.2791   58.9365 H   0  0  0  0  0  0  0  0  0  0  0  0
   21.4609   34.9287   58.4151 H   0  0  0  0  0  0  0  0  0  0  0  0
   21.7836   35.7595   60.7347 H   0  0  0  0  0  0  0  0  0  0  0  0
   22.0509   34.1051   61.2793 H   0  0  0  0  0  0  0  0  0  0  0  0
   19.6661   35.1081   61.5331 H   0  0  0  0  0  0  0  0  0  0  0  0
   19.8421   33.4595   60.9518 H   0  0  0  0  0  0  0  0  0  0  0  0
   19.6602   34.5362   58.5176 H   0  0  0  0  0  0  0  0  0  0  0  0
   19.0948   35.9542   59.3891 H   0  0  0  0  0  0  0  0  0  0  0  0
   17.2028   34.5793   60.2291 H   0  0  0  0  0  0  0  0  0  0  0  0
   17.9744   33.0989   59.6453 H   0  0  0  0  0  0  0  0  0  0  0  0
   16.1255   33.8500   58.1680 H   0  0  0  0  0  0  0  0  0  0  0  0
   17.6672   33.6902   57.3250 H   0  0  0  0  0  0  0  0  0  0  0  0
   18.0646   36.0742   57.4090 H   0  0  0  0  0  0  0  0  0  0  0  0
   16.6418   36.3312   58.4385 H   0  0  0  0  0  0  0  0  0  0  0  0
   15.2507   35.4087   56.4559 H   0  0  0  0  0  0  0  0  0  0  0  0
   16.7343   35.4661   55.5097 H   0  0  0  0  0  0  0  0  0  0  0  0
   15.0845   37.7335   56.6349 H   0  0  0  0  0  0  0  0  0  0  0  0
   15.7512   37.5428   55.0175 H   0  0  0  0  0  0  0  0  0  0  0  0
   16.9391   39.3451   56.2323 H   0  0  0  0  0  0  0  0  0  0  0  0
   18.0609   37.9907   55.9606 H   0  0  0  0  0  0  0  0  0  0  0  0
   17.3325   38.2617   57.5555 H   0  0  0  0  0  0  0  0  0  0  0  0
  1  5  1  0  0  0  0
  1  2  1  0  0  0  0
  1 21  1  0  0  0  0
  1 22  1  0  0  0  0
  2  4  2  0  0  0  0
  2  3  1  0  0  0  0
  5  6  1  0  0  0  0
  5 23  1  0  0  0  0
  5 24  1  0  0  0  0
  6  7  1  0  0  0  0
  6 25  1  0  0  0  0
  6 26  1  0  0  0  0
  7  8  1  0  0  0  0
  7 27  1  0  0  0  0
  7 28  1  0  0  0  0
  8  9  1  0  0  0  0
  8 29  1  0  0  0  0
  8 30  1  0  0  0  0
  9 10  1  0  0  0  0
  9 31  1  0  0  0  0
  9 32  1  0  0  0  0
 10 11  1  0  0  0  0
 10 33  1  0  0  0  0
 10 34  1  0  0  0  0
 11 12  1  0  0  0  0
 11 35  1  0  0  0  0
 11 36  1  0  0  0  0
 12 13  1  0  0  0  0
 12 37  1  0  0  0  0
 12 38  1  0  0  0  0
 13 14  1  0  0  0  0
 13 39  1  0  0  0  0
 13 40  1  0  0  0  0
 14 15  1  0  0  0  0
 14 41  1  0  0  0  0
 14 42  1  0  0  0  0
 15 16  1  0  0  0  0
 15 43  1  0  0  0  0
 15 44  1  0  0  0  0
 16 17  1  0  0  0  0
 16 45  1  0  0  0  0
 16 46  1  0  0  0  0
 17 18  1  0  0  0  0
 17 47  1  0  0  0  0
 17 48  1  0  0  0  0
 18 19  1  0  0  0  0
 18 49  1  0  0  0  0
 18 50  1  0  0  0  0
 19 20  1  0  0  0  0
 19 51  1  0  0  0  0
 19 52  1  0  0  0  0
 20 53  1  0  0  0  0
 20 54  1  0  0  0  0
 20 55  1  0  0  0  0
M  END
$$$$
