ESI
 OpenBabel04041914093D

 21 22  0  0  0  0  0  0  0  0999 V2000
   10.7738  -12.0343   24.5916 C   0  0  0  0  0  0  0  0  0  0  0  0
   11.6507  -12.1598   23.4505 C   0  0  0  0  0  0  0  0  0  0  0  0
   10.1209  -13.0803   25.0429 N   0  0  0  0  0  0  0  0  0  0  0  0
   10.6817  -10.8398   25.1279 N   0  0  0  0  0  0  0  0  0  0  0  0
   12.5257  -10.8490   22.8001 S   0  0  0  0  0  0  0  0  0  0  0  0
   13.2505  -11.8326   21.5974 C   0  0  0  0  0  0  0  0  0  0  0  0
   12.8152  -13.1585   21.6866 C   0  0  0  0  0  0  0  0  0  0  0  0
   11.8880  -13.3236   22.7663 C   0  0  0  0  0  0  0  0  0  0  0  0
   14.1693  -11.4158   20.6218 C   0  0  0  0  0  0  0  0  0  0  0  0
   14.6568  -12.3636   19.7229 C   0  0  0  0  0  0  0  0  0  0  0  0
   14.2432  -13.6895   19.7862 C   0  0  0  0  0  0  0  0  0  0  0  0
   13.3260  -14.0922   20.7568 C   0  0  0  0  0  0  0  0  0  0  0  0
   12.7157  -16.0977   20.8151 I   0  0  0  0  0  0  0  0  0  0  0  0
   10.2104  -13.9870   24.6085 H   0  0  0  0  0  0  0  0  0  0  0  0
    9.5004  -13.0291   25.8432 H   0  0  0  0  0  0  0  0  0  0  0  0
   11.2227  -10.0831   24.7135 H   0  0  0  0  0  0  0  0  0  0  0  0
   11.4429  -14.2809   23.0013 H   0  0  0  0  0  0  0  0  0  0  0  0
   14.4959  -10.3796   20.5663 H   0  0  0  0  0  0  0  0  0  0  0  0
   15.3702  -12.0569   18.9612 H   0  0  0  0  0  0  0  0  0  0  0  0
   14.6395  -14.4075   19.0738 H   0  0  0  0  0  0  0  0  0  0  0  0
   10.0977  -10.6289   25.9253 H   0  0  0  0  0  0  0  0  0  0  0  0
  1  4  2  0  0  0  0
  1  3  1  0  0  0  0
  1  2  1  0  0  0  0
  2  8  2  0  0  0  0
  2  5  1  0  0  0  0
  3 14  1  0  0  0  0
  3 15  1  0  0  0  0
  4 16  1  0  0  0  0
  4 21  1  0  0  0  0
  5  6  1  0  0  0  0
  6  9  2  0  0  0  0
  6  7  1  0  0  0  0
  7 12  2  0  0  0  0
  7  8  1  0  0  0  0
  8 17  1  0  0  0  0
  9 10  1  0  0  0  0
  9 18  1  0  0  0  0
 10 11  2  0  0  0  0
 10 19  1  0  0  0  0
 11 12  1  0  0  0  0
 11 20  1  0  0  0  0
 12 13  1  0  0  0  0
M  END
$$$$
