ESI
 OpenBabel04041914103D

 21 22  0  0  0  0  0  0  0  0999 V2000
    7.9710   -0.9969   25.8852 C   0  0  0  0  0  0  0  0  0  0  0  0
    8.3330    0.3337   25.4244 C   0  0  0  0  0  0  0  0  0  0  0  0
    7.3142   -1.1698   27.0134 N   0  0  0  0  0  0  0  0  0  0  0  0
    8.3371   -2.0043   25.1299 N   0  0  0  0  0  0  0  0  0  0  0  0
    9.0083    0.6743   23.8882 S   0  0  0  0  0  0  0  0  0  0  0  0
    9.1361    2.3654   24.2130 C   0  0  0  0  0  0  0  0  0  0  0  0
    8.6593    2.6548   25.4970 C   0  0  0  0  0  0  0  0  0  0  0  0
    8.2068    1.4801   26.1726 C   0  0  0  0  0  0  0  0  0  0  0  0
    9.6380    3.3765   23.3692 C   0  0  0  0  0  0  0  0  0  0  0  0
    9.6447    4.6967   23.8341 C   0  0  0  0  0  0  0  0  0  0  0  0
    9.1773    5.0087   25.1048 C   0  0  0  0  0  0  0  0  0  0  0  0
    8.6930    4.0048   25.9349 C   0  0  0  0  0  0  0  0  0  0  0  0
    8.0158    4.5353   27.8451 I   0  0  0  0  0  0  0  0  0  0  0  0
    7.0593   -2.0842   27.3553 H   0  0  0  0  0  0  0  0  0  0  0  0
    8.8385   -1.8047   24.2695 H   0  0  0  0  0  0  0  0  0  0  0  0
    8.1487   -2.9692   25.3628 H   0  0  0  0  0  0  0  0  0  0  0  0
    7.8204    1.5174   27.1790 H   0  0  0  0  0  0  0  0  0  0  0  0
   10.0175    3.1556   22.3728 H   0  0  0  0  0  0  0  0  0  0  0  0
   10.0227    5.4975   23.2025 H   0  0  0  0  0  0  0  0  0  0  0  0
    9.1910    6.0367   25.4515 H   0  0  0  0  0  0  0  0  0  0  0  0
    7.0216   -0.3843   27.5850 H   0  0  0  0  0  0  0  0  0  0  0  0
  1  2  1  0  0  0  0
  1  3  2  0  0  0  0
  1  4  1  0  0  0  0
  2  5  1  0  0  0  0
  2  8  2  0  0  0  0
  3 14  1  0  0  0  0
  3 21  1  0  0  0  0
  4 15  1  0  0  0  0
  4 16  1  0  0  0  0
  5  6  1  0  0  0  0
  6  7  2  0  0  0  0
  6  9  1  0  0  0  0
  7 12  1  0  0  0  0
  7  8  1  0  0  0  0
  8 17  1  0  0  0  0
  9 10  2  0  0  0  0
  9 18  1  0  0  0  0
 10 11  1  0  0  0  0
 10 19  1  0  0  0  0
 11 12  2  0  0  0  0
 11 20  1  0  0  0  0
 12 13  1  0  0  0  0
M  END
$$$$
