ESP
 OpenBabel04041914103D

 20 21  0  0  0  0  0  0  0  0999 V2000
    8.1663   -0.9463   25.8480 C   0  0  0  0  0  0  0  0  0  0  0  0
    8.5168    0.3636   25.3432 C   0  0  0  0  0  0  0  0  0  0  0  0
    7.5469   -1.0731   27.0004 N   0  0  0  0  0  0  0  0  0  0  0  0
    8.4970   -1.9823   25.1110 N   0  0  0  0  0  0  0  0  0  0  0  0
    9.0916    0.6454   23.7480 S   0  0  0  0  0  0  0  0  0  0  0  0
    9.2489    2.3185   24.0348 C   0  0  0  0  0  0  0  0  0  0  0  0
    8.8743    2.6576   25.3197 C   0  0  0  0  0  0  0  0  0  0  0  0
    8.4553    1.5237   26.0746 C   0  0  0  0  0  0  0  0  0  0  0  0
    9.6965    3.1552   23.0736 N   0  0  0  0  0  0  0  0  0  0  0  0
    9.7539    4.4401   23.4852 C   0  0  0  0  0  0  0  0  0  0  0  0
    9.4114    4.9141   24.7433 C   0  0  0  0  0  0  0  0  0  0  0  0
    8.9629    4.0067   25.6869 C   0  0  0  0  0  0  0  0  0  0  0  0
    7.2877   -1.9709   27.3827 H   0  0  0  0  0  0  0  0  0  0  0  0
    8.9785   -1.8159   24.2272 H   0  0  0  0  0  0  0  0  0  0  0  0
    8.3003   -2.9381   25.3676 H   0  0  0  0  0  0  0  0  0  0  0  0
    8.1437    1.6186   27.1047 H   0  0  0  0  0  0  0  0  0  0  0  0
   10.1077    5.1405   22.7281 H   0  0  0  0  0  0  0  0  0  0  0  0
    9.4880    5.9604   24.9903 H   0  0  0  0  0  0  0  0  0  0  0  0
    8.6783    4.3202   26.6867 H   0  0  0  0  0  0  0  0  0  0  0  0
    7.2884   -0.2579   27.5493 H   0  0  0  0  0  0  0  0  0  0  0  0
  1  2  1  0  0  0  0
  1  3  2  0  0  0  0
  1  4  1  0  0  0  0
  2  5  1  0  0  0  0
  2  8  2  0  0  0  0
  3 13  1  0  0  0  0
  3 20  1  0  0  0  0
  4 14  1  0  0  0  0
  4 15  1  0  0  0  0
  5  6  1  0  0  0  0
  6  7  2  0  0  0  0
  6  9  1  0  0  0  0
  7 12  1  0  0  0  0
  7  8  1  0  0  0  0
  8 16  1  0  0  0  0
  9 10  2  0  0  0  0
 10 11  1  0  0  0  0
 10 17  1  0  0  0  0
 11 12  2  0  0  0  0
 11 18  1  0  0  0  0
 12 19  1  0  0  0  0
M  END
$$$$
