EST
 OpenBabel04041915103D

 44 47  0  0  1  0  0  0  0  0999 V2000
   43.1254   25.7531   67.9143 C   0  0  0  0  0  0  0  0  0  0  0  0
   44.4804   25.6240   68.2510 C   0  0  0  0  0  0  0  0  0  0  0  0
   45.2110   24.6057   67.6862 C   0  0  0  0  0  0  0  0  0  0  0  0
   46.5354   24.4207   67.9881 O   0  0  0  0  0  0  0  0  0  0  0  0
   44.6335   23.7184   66.7913 C   0  0  0  0  0  0  0  0  0  0  0  0
   43.2718   23.8297   66.4574 C   0  0  0  0  0  0  0  0  0  0  0  0
   42.6965   22.8208   65.4927 C   0  0  0  0  0  0  0  0  0  0  0  0
   41.2020   22.9577   65.1893 C   0  0  0  0  0  0  0  0  0  0  0  0
   40.7233   24.4158   65.2269 C   0  0  2  0  0  0  0  0  0  0  0  0
   41.0152   24.9944   66.6499 C   0  0  1  0  0  0  0  0  0  0  0  0
   42.4982   24.8752   67.0012 C   0  0  0  0  0  0  0  0  0  0  0  0
   40.4238   26.4181   66.8047 C   0  0  0  0  0  0  0  0  0  0  0  0
   38.9430   26.5281   66.3940 C   0  0  0  0  0  0  0  0  0  0  0  0
   38.7066   26.0046   64.9720 C   0  0  1  0  0  0  0  0  0  0  0  0
   39.2165   24.5443   64.9284 C   0  0  1  0  0  0  0  0  0  0  0  0
   38.6427   24.0434   63.6066 C   0  0  0  0  0  0  0  0  0  0  0  0
   37.2074   24.6005   63.6283 C   0  0  0  0  0  0  0  0  0  0  0  0
   37.2152   25.7999   64.5997 C   0  0  2  0  0  0  0  0  0  0  0  0
   36.6132   26.9224   63.9749 O   0  0  0  0  0  0  0  0  0  0  0  0
   39.3774   26.9607   63.9527 C   0  0  0  0  0  0  0  0  0  0  0  0
   42.5684   26.5595   68.3835 H   0  0  0  0  0  0  0  0  0  0  0  0
   44.9302   26.3347   68.9360 H   0  0  0  0  0  0  0  0  0  0  0  0
   46.6630   24.6774   68.9162 H   0  0  0  0  0  0  0  0  0  0  0  0
   45.2449   22.9295   66.3581 H   0  0  0  0  0  0  0  0  0  0  0  0
   42.8821   21.8105   65.8818 H   0  0  0  0  0  0  0  0  0  0  0  0
   43.2568   22.9068   64.5493 H   0  0  0  0  0  0  0  0  0  0  0  0
   40.6353   22.3678   65.9210 H   0  0  0  0  0  0  0  0  0  0  0  0
   41.0022   22.5072   64.2098 H   0  0  0  0  0  0  0  0  0  0  0  0
   41.2944   24.9799   64.4774 H   0  0  0  0  0  0  0  0  0  0  0  0
   40.4942   24.3594   67.3841 H   0  0  0  0  0  0  0  0  0  0  0  0
   41.0259   27.1266   66.2239 H   0  0  0  0  0  0  0  0  0  0  0  0
   40.4926   26.7446   67.8491 H   0  0  0  0  0  0  0  0  0  0  0  0
   38.6133   27.5703   66.4821 H   0  0  0  0  0  0  0  0  0  0  0  0
   38.3422   25.9520   67.1101 H   0  0  0  0  0  0  0  0  0  0  0  0
   38.6974   23.9724   65.7161 H   0  0  0  0  0  0  0  0  0  0  0  0
   38.6437   22.9536   63.5182 H   0  0  0  0  0  0  0  0  0  0  0  0
   39.1910   24.4445   62.7471 H   0  0  0  0  0  0  0  0  0  0  0  0
   36.5274   23.8345   64.0234 H   0  0  0  0  0  0  0  0  0  0  0  0
   36.8540   24.8603   62.6254 H   0  0  0  0  0  0  0  0  0  0  0  0
   36.6130   25.5542   65.4830 H   0  0  0  0  0  0  0  0  0  0  0  0
   36.6316   27.6625   64.6045 H   0  0  0  0  0  0  0  0  0  0  0  0
   40.4487   27.0837   64.1275 H   0  0  0  0  0  0  0  0  0  0  0  0
   38.9312   27.9602   64.0109 H   0  0  0  0  0  0  0  0  0  0  0  0
   39.2594   26.6213   62.9193 H   0  0  0  0  0  0  0  0  0  0  0  0
  1  2  2  0  0  0  0
  1 11  1  0  0  0  0
  1 21  1  0  0  0  0
  2  3  1  0  0  0  0
  2 22  1  0  0  0  0
  3  4  1  0  0  0  0
  3  5  2  0  0  0  0
  4 23  1  0  0  0  0
  5  6  1  0  0  0  0
  5 24  1  0  0  0  0
  6  7  1  0  0  0  0
  6 11  2  0  0  0  0
  7  8  1  0  0  0  0
  7 25  1  0  0  0  0
  7 26  1  0  0  0  0
  8  9  1  0  0  0  0
  8 27  1  0  0  0  0
  8 28  1  0  0  0  0
  9 10  1  0  0  0  0
  9 15  1  0  0  0  0
  9 29  1  6  0  0  0
 10 11  1  0  0  0  0
 10 12  1  0  0  0  0
 10 30  1  1  0  0  0
 12 13  1  0  0  0  0
 12 31  1  0  0  0  0
 12 32  1  0  0  0  0
 13 14  1  0  0  0  0
 13 33  1  0  0  0  0
 13 34  1  0  0  0  0
 14 15  1  0  0  0  0
 14 18  1  0  0  0  0
 14 20  1  6  0  0  0
 15 16  1  0  0  0  0
 15 35  1  1  0  0  0
 16 17  1  0  0  0  0
 16 36  1  0  0  0  0
 16 37  1  0  0  0  0
 17 18  1  0  0  0  0
 17 38  1  0  0  0  0
 17 39  1  0  0  0  0
 18 19  1  0  0  0  0
 18 40  1  1  0  0  0
 19 41  1  0  0  0  0
 20 42  1  0  0  0  0
 20 43  1  0  0  0  0
 20 44  1  0  0  0  0
M  END
$$$$
