F2B
 OpenBabel04041914453D

 34 35  0  0  0  0  0  0  0  0999 V2000
   -3.7842    3.4236   14.5252 C   0  0  0  0  0  0  0  0  0  0  0  0
   -4.2180    2.3109   15.2714 C   0  0  0  0  0  0  0  0  0  0  0  0
   -5.5140    2.2831   15.7775 C   0  0  0  0  0  0  0  0  0  0  0  0
   -6.3787    3.3578   15.5290 C   0  0  0  0  0  0  0  0  0  0  0  0
   -5.9350    4.4672   14.7801 C   0  0  0  0  0  0  0  0  0  0  0  0
   -4.6254    4.5158   14.2688 C   0  0  0  0  0  0  0  0  0  0  0  0
   -4.1784    5.7278   13.4721 C   0  0  0  0  0  0  0  0  0  0  0  0
   -4.9626    6.6379   13.2543 O   0  0  0  0  0  0  0  0  0  0  0  0
   -2.8683    5.7439   13.0146 N   0  0  0  0  0  0  0  0  0  0  0  0
   -2.2843    6.8134   12.1959 C   0  0  0  0  0  0  0  0  0  0  0  0
   -6.0636    0.9290   16.7997 S   0  0  0  0  0  0  0  0  0  0  0  0
   -5.5722   -0.4594   16.0154 N   0  0  0  0  0  0  0  0  0  0  0  0
   -7.5089    0.9052   16.7696 O   0  0  0  0  0  0  0  0  0  0  0  0
   -5.3267    0.9990   18.0386 O   0  0  0  0  0  0  0  0  0  0  0  0
   -1.9070    8.0503   12.9586 C   0  0  0  0  0  0  0  0  0  0  0  0
   -1.5461    7.9844   14.3102 C   0  0  0  0  0  0  0  0  0  0  0  0
   -1.1788    9.1261   15.0161 C   0  0  0  0  0  0  0  0  0  0  0  0
   -1.1373   10.3579   14.3649 C   0  0  0  0  0  0  0  0  0  0  0  0
   -1.4549   10.4371   13.0102 C   0  0  0  0  0  0  0  0  0  0  0  0
   -1.8306    9.2923   12.3064 C   0  0  0  0  0  0  0  0  0  0  0  0
   -1.3870   11.6222   12.3857 F   0  0  0  0  0  0  0  0  0  0  0  0
   -2.1079    9.3739   10.9978 F   0  0  0  0  0  0  0  0  0  0  0  0
   -2.7639    3.4034   14.1653 H   0  0  0  0  0  0  0  0  0  0  0  0
   -3.5237    1.4964   15.4647 H   0  0  0  0  0  0  0  0  0  0  0  0
   -7.3922    3.3500   15.9303 H   0  0  0  0  0  0  0  0  0  0  0  0
   -6.6255    5.2952   14.6110 H   0  0  0  0  0  0  0  0  0  0  0  0
   -2.2553    4.9731   13.2005 H   0  0  0  0  0  0  0  0  0  0  0  0
   -2.9851    7.0531   11.3875 H   0  0  0  0  0  0  0  0  0  0  0  0
   -1.3722    6.3896   11.7644 H   0  0  0  0  0  0  0  0  0  0  0  0
   -5.7248   -1.3418   16.5011 H   0  0  0  0  0  0  0  0  0  0  0  0
   -5.0327   -0.4335   15.1605 H   0  0  0  0  0  0  0  0  0  0  0  0
   -1.5696    7.0274   14.8304 H   0  0  0  0  0  0  0  0  0  0  0  0
   -0.9304    9.0501   16.0720 H   0  0  0  0  0  0  0  0  0  0  0  0
   -0.8521   11.2556   14.9057 H   0  0  0  0  0  0  0  0  0  0  0  0
  1  6  2  0  0  0  0
  1  2  1  0  0  0  0
  1 23  1  0  0  0  0
  2  3  2  0  0  0  0
  2 24  1  0  0  0  0
  3 11  1  0  0  0  0
  3  4  1  0  0  0  0
  4  5  2  0  0  0  0
  4 25  1  0  0  0  0
  5  6  1  0  0  0  0
  5 26  1  0  0  0  0
  6  7  1  0  0  0  0
  7  9  1  0  0  0  0
  7  8  2  0  0  0  0
  9 10  1  0  0  0  0
  9 27  1  0  0  0  0
 10 15  1  0  0  0  0
 10 28  1  0  0  0  0
 10 29  1  0  0  0  0
 11 14  2  0  0  0  0
 11 13  2  0  0  0  0
 11 12  1  0  0  0  0
 12 30  1  0  0  0  0
 12 31  1  0  0  0  0
 15 20  2  0  0  0  0
 15 16  1  0  0  0  0
 16 17  2  0  0  0  0
 16 32  1  0  0  0  0
 17 18  1  0  0  0  0
 17 33  1  0  0  0  0
 18 19  2  0  0  0  0
 18 34  1  0  0  0  0
 19 20  1  0  0  0  0
 19 21  1  0  0  0  0
 20 22  1  0  0  0  0
M  END
$$$$
