FHC
 OpenBabel04041915443D

 19 19  0  0  0  0  0  0  0  0999 V2000
   -5.7879   12.8462   -3.4605 C   0  0  0  0  0  0  0  0  0  0  0  0
   -6.3275   11.7759   -4.3271 C   0  0  0  0  0  0  0  0  0  0  0  0
   -5.7854   10.5999   -4.7044 C   0  0  0  0  0  0  0  0  0  0  0  0
   -4.3573   10.0829   -4.4003 C   0  0  0  0  0  0  0  0  0  0  0  0
   -4.3002    8.8777   -4.0060 O   0  0  0  0  0  0  0  0  0  0  0  0
   -3.4154   10.9030   -4.5952 O   0  0  0  0  0  0  0  0  0  0  0  0
   -4.6843   12.7168   -2.6119 C   0  0  0  0  0  0  0  0  0  0  0  0
   -4.2447   13.7597   -1.7957 C   0  0  0  0  0  0  0  0  0  0  0  0
   -4.9557   14.9425   -1.7760 C   0  0  0  0  0  0  0  0  0  0  0  0
   -4.5612   15.9236   -0.9157 O   0  0  0  0  0  0  0  0  0  0  0  0
   -6.0658   15.1175   -2.5915 C   0  0  0  0  0  0  0  0  0  0  0  0
   -6.4735   14.0687   -3.4337 C   0  0  0  0  0  0  0  0  0  0  0  0
   -6.6080    9.7861   -5.4322 F   0  0  0  0  0  0  0  0  0  0  0  0
   -7.3284   11.9593   -4.6964 H   0  0  0  0  0  0  0  0  0  0  0  0
   -4.1099   11.7892   -2.5645 H   0  0  0  0  0  0  0  0  0  0  0  0
   -3.3583   13.6242   -1.1858 H   0  0  0  0  0  0  0  0  0  0  0  0
   -5.3602   16.1861   -0.4291 H   0  0  0  0  0  0  0  0  0  0  0  0
   -6.6050   16.0550   -2.6058 H   0  0  0  0  0  0  0  0  0  0  0  0
   -7.3410   14.2252   -4.0692 H   0  0  0  0  0  0  0  0  0  0  0  0
  1 12  2  0  0  0  0
  1  7  1  0  0  0  0
  1  2  1  0  0  0  0
  2  3  2  0  0  0  0
  2 14  1  0  0  0  0
  3 13  1  0  0  0  0
  3  4  1  0  0  0  0
  4  6  2  0  0  0  0
  4  5  1  0  0  0  0
  7  8  2  0  0  0  0
  7 15  1  0  0  0  0
  8  9  1  0  0  0  0
  8 16  1  0  0  0  0
  9 11  2  0  0  0  0
  9 10  1  0  0  0  0
 10 17  1  0  0  0  0
 11 12  1  0  0  0  0
 11 18  1  0  0  0  0
 12 19  1  0  0  0  0
M  END
$$$$
