FLU
 OpenBabel04041915483D

 36 39  0  0  0  0  0  0  0  0999 V2000
    6.5733   75.0384   53.2641 C   0  0  0  0  0  0  0  0  0  0  0  0
    6.2531   74.3078   54.1965 O   0  0  0  0  0  0  0  0  0  0  0  0
    6.4195   74.5983   51.8647 C   0  0  0  0  0  0  0  0  0  0  0  0
    6.7214   75.4080   50.8477 C   0  0  0  0  0  0  0  0  0  0  0  0
    6.5292   74.9302   49.5612 O   0  3  0  0  0  0  0  0  0  0  0  0
    6.7808   75.7516   48.4978 C   0  0  0  0  0  0  0  0  0  0  0  0
    6.5246   75.2075   47.2357 C   0  0  0  0  0  0  0  0  0  0  0  0
    6.7479   75.9828   46.1084 C   0  0  0  0  0  0  0  0  0  0  0  0
    6.4578   75.5142   44.8618 O   0  0  0  0  0  0  0  0  0  0  0  0
    7.2452   77.2700   46.2207 C   0  0  0  0  0  0  0  0  0  0  0  0
    7.4795   77.8092   47.4874 C   0  0  0  0  0  0  0  0  0  0  0  0
    7.2483   77.0559   48.6514 C   0  0  0  0  0  0  0  0  0  0  0  0
    7.4798   77.6053   50.0167 C   0  0  0  0  0  0  0  0  0  0  0  0
    7.2239   76.7780   51.0699 C   0  0  0  0  0  0  0  0  0  0  0  0
    7.4281   77.1935   52.4674 C   0  0  0  0  0  0  0  0  0  0  0  0
    7.1096   76.3947   53.4972 C   0  0  0  0  0  0  0  0  0  0  0  0
    7.9244   79.0197   50.2205 C   0  0  0  0  0  0  0  0  0  0  0  0
    6.9456   79.9440   50.6437 C   0  0  0  0  0  0  0  0  0  0  0  0
    7.2376   81.3027   50.7673 C   0  0  0  0  0  0  0  0  0  0  0  0
    8.5065   81.7678   50.4418 C   0  0  0  0  0  0  0  0  0  0  0  0
    9.4791   80.8703   50.0004 C   0  0  0  0  0  0  0  0  0  0  0  0
    9.2153   79.4895   49.8898 C   0  0  0  0  0  0  0  0  0  0  0  0
   10.3202   78.5943   49.3789 C   0  0  0  0  0  0  0  0  0  0  0  0
   11.0663   79.0820   48.4681 O   0  0  0  0  0  0  0  0  0  0  0  0
   10.4487   77.4501   49.9121 O   0  0  0  0  0  0  0  0  0  0  0  0
    6.0424   73.5976   51.7050 H   0  0  0  0  0  0  0  0  0  0  0  0
    6.1756   74.1838   47.1577 H   0  0  0  0  0  0  0  0  0  0  0  0
    5.6290   75.0153   44.9423 H   0  0  0  0  0  0  0  0  0  0  0  0
    7.4478   77.8622   45.3343 H   0  0  0  0  0  0  0  0  0  0  0  0
    7.8671   78.8234   47.5433 H   0  0  0  0  0  0  0  0  0  0  0  0
    7.8604   78.1671   52.6749 H   0  0  0  0  0  0  0  0  0  0  0  0
    7.2481   76.6905   54.5298 H   0  0  0  0  0  0  0  0  0  0  0  0
    5.9368   79.5992   50.8586 H   0  0  0  0  0  0  0  0  0  0  0  0
    6.4699   81.9957   51.0954 H   0  0  0  0  0  0  0  0  0  0  0  0
    8.7416   82.8245   50.5114 H   0  0  0  0  0  0  0  0  0  0  0  0
   10.4655   81.2391   49.7155 H   0  0  0  0  0  0  0  0  0  0  0  0
  1  2  2  0  0  0  0
  1  3  1  0  0  0  0
  1 16  1  0  0  0  0
  3  4  2  0  0  0  0
  3 26  1  0  0  0  0
  4  5  1  0  0  0  0
  4 14  1  0  0  0  0
  5  6  1  0  0  0  0
  6  7  2  0  0  0  0
  6 12  1  0  0  0  0
  7  8  1  0  0  0  0
  7 27  1  0  0  0  0
  8  9  1  0  0  0  0
  8 10  2  0  0  0  0
  9 28  1  0  0  0  0
 10 11  1  0  0  0  0
 10 29  1  0  0  0  0
 11 12  2  0  0  0  0
 11 30  1  0  0  0  0
 12 13  1  0  0  0  0
 13 14  2  0  0  0  0
 13 17  1  0  0  0  0
 14 15  1  0  0  0  0
 15 16  2  0  0  0  0
 15 31  1  0  0  0  0
 16 32  1  0  0  0  0
 17 18  2  0  0  0  0
 17 22  1  0  0  0  0
 18 19  1  0  0  0  0
 18 33  1  0  0  0  0
 19 20  2  0  0  0  0
 19 34  1  0  0  0  0
 20 21  1  0  0  0  0
 20 35  1  0  0  0  0
 21 22  2  0  0  0  0
 21 36  1  0  0  0  0
 22 23  1  0  0  0  0
 23 24  2  0  0  0  0
 23 25  1  0  0  0  0
M  CHG  1   5   1
M  END
$$$$
