FMC
 OpenBabel04041915513D

 32 34  0  0  1  0  0  0  0  0999 V2000
   52.3723   40.6306   19.7766 N   0  0  0  0  0  0  0  0  0  0  0  0
   53.1011   40.6512   20.9258 C   0  0  0  0  0  0  0  0  0  0  0  0
   54.3939   40.3122   21.0800 N   0  0  0  0  0  0  0  0  0  0  0  0
   54.9954   39.9283   19.9249 C   0  0  0  0  0  0  0  0  0  0  0  0
   54.3066   39.8793   18.7135 C   0  0  0  0  0  0  0  0  0  0  0  0
   52.9741   40.2328   18.6452 C   0  0  0  0  0  0  0  0  0  0  0  0
   52.2076   40.2185   17.4931 N   0  0  0  0  0  0  0  0  0  0  0  0
   55.2220   39.4435   17.8098 N   0  3  0  0  0  0  0  0  0  0  0  0
   56.4523   39.2024   18.3325 N   0  0  0  0  0  0  0  0  0  0  0  0
   56.3323   39.4895   19.6563 C   0  0  0  0  0  0  0  0  0  0  0  0
   57.5242   39.2773   20.6441 C   0  0  1  0  0  0  0  0  0  0  0  0
   57.4156   39.8676   22.0792 C   0  0  2  0  0  0  0  0  0  0  0  0
   58.3433   40.9312   22.3924 O   0  0  0  0  0  0  0  0  0  0  0  0
   57.6639   38.6937   23.0306 C   0  0  2  0  0  0  0  0  0  0  0  0
   59.0227   38.7661   23.5156 O   0  0  0  0  0  0  0  0  0  0  0  0
   57.4318   37.4397   22.1838 C   0  0  2  0  0  0  0  0  0  0  0  0
   57.7906   37.8464   20.8330 O   0  0  0  0  0  0  0  0  0  0  0  0
   55.9795   36.8863   22.1864 C   0  0  0  0  0  0  0  0  0  0  0  0
   55.5162   36.3533   23.4257 O   0  0  0  0  0  0  0  0  0  0  0  0
   52.5824   40.9800   21.8272 H   0  0  0  0  0  0  0  0  0  0  0  0
   52.5904   39.9271   16.5998 H   0  0  0  0  0  0  0  0  0  0  0  0
   51.2513   40.4911   17.5768 H   0  0  0  0  0  0  0  0  0  0  0  0
   55.0732   39.2862   16.8107 H   0  0  0  0  0  0  0  0  0  0  0  0
   58.4117   39.7249   20.1678 H   0  0  0  0  0  0  0  0  0  0  0  0
   56.4336   40.2822   22.2717 H   0  0  0  0  0  0  0  0  0  0  0  0
   59.2514   40.5858   22.2862 H   0  0  0  0  0  0  0  0  0  0  0  0
   57.0078   38.7248   23.9023 H   0  0  0  0  0  0  0  0  0  0  0  0
   59.1071   39.6211   23.9835 H   0  0  0  0  0  0  0  0  0  0  0  0
   58.1017   36.6241   22.5003 H   0  0  0  0  0  0  0  0  0  0  0  0
   55.8979   36.0660   21.4610 H   0  0  0  0  0  0  0  0  0  0  0  0
   55.2777   37.6570   21.8677 H   0  0  0  0  0  0  0  0  0  0  0  0
   55.4676   37.0579   24.0905 H   0  0  0  0  0  0  0  0  0  0  0  0
  1  2  1  0  0  0  0
  1  6  2  0  0  0  0
  2  3  2  0  0  0  0
  2 20  1  0  0  0  0
  3  4  1  0  0  0  0
  4  5  1  0  0  0  0
  4 10  2  0  0  0  0
  5  6  1  0  0  0  0
  5  8  2  0  0  0  0
  6  7  1  0  0  0  0
  7 21  1  0  0  0  0
  7 22  1  0  0  0  0
  8  9  1  0  0  0  0
  8 23  1  0  0  0  0
  9 10  1  0  0  0  0
 10 11  1  0  0  0  0
 11 12  1  0  0  0  0
 11 17  1  0  0  0  0
 11 24  1  6  0  0  0
 12 13  1  0  0  0  0
 12 14  1  0  0  0  0
 12 25  1  1  0  0  0
 13 26  1  0  0  0  0
 14 15  1  0  0  0  0
 14 16  1  0  0  0  0
 14 27  1  1  0  0  0
 15 28  1  0  0  0  0
 16 17  1  0  0  0  0
 16 18  1  0  0  0  0
 16 29  1  1  0  0  0
 18 19  1  0  0  0  0
 18 30  1  0  0  0  0
 18 31  1  0  0  0  0
 19 32  1  0  0  0  0
M  CHG  1   8   1
M  END
$$$$
