FMS
 OpenBabel04041914013D

 10  9  0  0  0  0  0  0  0  0999 V2000
   -6.5604    1.7115   17.3914 C   0  0  0  0  0  0  0  0  0  0  0  0
   -7.7739    1.2499   16.9738 F   0  0  0  0  0  0  0  0  0  0  0  0
   -6.6608    3.0642   17.5168 F   0  0  0  0  0  0  0  0  0  0  0  0
   -6.3629    1.1997   18.6382 F   0  0  0  0  0  0  0  0  0  0  0  0
   -5.2006    1.2029   16.2020 S   0  0  0  0  0  0  0  0  0  0  0  0
   -5.2939   -0.4832   16.0751 N   0  0  0  0  0  0  0  0  0  0  0  0
   -3.8872    1.4700   16.7841 O   0  0  0  0  0  0  0  0  0  0  0  0
   -5.4933    1.6659   14.8699 O   0  0  0  0  0  0  0  0  0  0  0  0
   -4.4683   -0.8977   15.6646 H   0  0  0  0  0  0  0  0  0  0  0  0
   -5.7902   -0.9986   16.7885 H   0  0  0  0  0  0  0  0  0  0  0  0
  1  5  1  0  0  0  0
  1  4  1  0  0  0  0
  1  3  1  0  0  0  0
  1  2  1  0  0  0  0
  5  8  2  0  0  0  0
  5  7  2  0  0  0  0
  5  6  1  0  0  0  0
  6  9  1  0  0  0  0
  6 10  1  0  0  0  0
M  END
$$$$
