FR0
 OpenBabel04041915513D

 40 43  0  0  0  0  0  0  0  0999 V2000
   45.9457   47.8771   17.0548 N   0  3  0  0  0  0  0  0  0  0  0  0
   45.3904   47.5458   18.2669 C   0  0  0  0  0  0  0  0  0  0  0  0
   46.2837   48.0676   19.1949 C   0  0  0  0  0  0  0  0  0  0  0  0
   47.3495   48.6556   18.5722 N   0  0  0  0  0  0  0  0  0  0  0  0
   47.1553   48.4790   17.2888 C   0  0  0  0  0  0  0  0  0  0  0  0
   44.2410   46.8404   18.6292 C   0  0  0  0  0  0  0  0  0  0  0  0
   44.0232   46.6616   20.0027 C   0  0  0  0  0  0  0  0  0  0  0  0
   44.8991   47.1886   20.9558 C   0  0  0  0  0  0  0  0  0  0  0  0
   46.0321   47.9102   20.5638 C   0  0  0  0  0  0  0  0  0  0  0  0
   47.9881   48.7863   16.2774 N   0  0  0  0  0  0  0  0  0  0  0  0
   49.1491   49.6155   16.5868 C   0  0  0  0  0  0  0  0  0  0  0  0
   48.8245   51.0583   16.8743 C   0  0  0  0  0  0  0  0  0  0  0  0
   49.5653   51.8577   18.1769 S   0  0  0  0  0  0  0  0  0  0  0  0
   48.6950   53.3157   17.8794 C   0  0  0  0  0  0  0  0  0  0  0  0
   47.8397   53.1861   16.8070 C   0  0  0  0  0  0  0  0  0  0  0  0
   47.9392   51.8866   16.2131 C   0  0  0  0  0  0  0  0  0  0  0  0
   48.9208   54.5368   18.7155 C   0  0  0  0  0  0  0  0  0  0  0  0
   49.9249   54.4769   19.6621 N   0  0  0  0  0  0  0  0  0  0  0  0
   50.0127   55.5724   20.3652 C   0  0  0  0  0  0  0  0  0  0  0  0
   48.9850   56.8344   19.7931 S   0  0  0  0  0  0  0  0  0  0  0  0
   48.2521   55.7332   18.6745 C   0  0  0  0  0  0  0  0  0  0  0  0
   50.7733   55.7137   21.4727 N   0  0  0  0  0  0  0  0  0  0  0  0
   51.1316   54.6910   22.3021 C   0  0  0  0  0  0  0  0  0  0  0  0
   51.0769   53.4418   22.0284 N   0  0  0  0  0  0  0  0  0  0  0  0
   51.4933   55.0890   23.5530 N   0  0  0  0  0  0  0  0  0  0  0  0
   45.5720   47.6521   16.1479 H   0  0  0  0  0  0  0  0  0  0  0  0
   43.5614   46.4254   17.8934 H   0  0  0  0  0  0  0  0  0  0  0  0
   43.1578   46.0926   20.3360 H   0  0  0  0  0  0  0  0  0  0  0  0
   44.7100   47.0308   22.0143 H   0  0  0  0  0  0  0  0  0  0  0  0
   46.7259   48.3167   21.2902 H   0  0  0  0  0  0  0  0  0  0  0  0
   47.6958   48.7991   15.3100 H   0  0  0  0  0  0  0  0  0  0  0  0
   49.8209   49.5928   15.7176 H   0  0  0  0  0  0  0  0  0  0  0  0
   49.7212   49.1601   17.4062 H   0  0  0  0  0  0  0  0  0  0  0  0
   47.2005   53.9638   16.4417 H   0  0  0  0  0  0  0  0  0  0  0  0
   47.3613   51.5674   15.3537 H   0  0  0  0  0  0  0  0  0  0  0  0
   47.4179   56.0325   18.0693 H   0  0  0  0  0  0  0  0  0  0  0  0
   51.1363   56.6290   21.6899 H   0  0  0  0  0  0  0  0  0  0  0  0
   51.3960   52.8797   22.8049 H   0  0  0  0  0  0  0  0  0  0  0  0
   51.0594   55.9388   23.8633 H   0  0  0  0  0  0  0  0  0  0  0  0
   51.3484   54.3559   24.2306 H   0  0  0  0  0  0  0  0  0  0  0  0
  1  2  1  0  0  0  0
  1  5  2  0  0  0  0
  1 26  1  0  0  0  0
  2  3  2  0  0  0  0
  2  6  1  0  0  0  0
  3  4  1  0  0  0  0
  3  9  1  0  0  0  0
  4  5  1  0  0  0  0
  5 10  1  0  0  0  0
  6  7  2  0  0  0  0
  6 27  1  0  0  0  0
  7  8  1  0  0  0  0
  7 28  1  0  0  0  0
  8  9  2  0  0  0  0
  8 29  1  0  0  0  0
  9 30  1  0  0  0  0
 10 11  1  0  0  0  0
 10 31  1  0  0  0  0
 11 12  1  0  0  0  0
 11 32  1  0  0  0  0
 11 33  1  0  0  0  0
 12 13  1  0  0  0  0
 12 16  2  0  0  0  0
 13 14  1  0  0  0  0
 14 15  2  0  0  0  0
 14 17  1  0  0  0  0
 15 16  1  0  0  0  0
 15 34  1  0  0  0  0
 16 35  1  0  0  0  0
 17 18  1  0  0  0  0
 17 21  2  0  0  0  0
 18 19  2  0  0  0  0
 19 20  1  0  0  0  0
 19 22  1  0  0  0  0
 20 21  1  0  0  0  0
 21 36  1  0  0  0  0
 22 23  1  0  0  0  0
 22 37  1  0  0  0  0
 23 24  2  0  0  0  0
 23 25  1  0  0  0  0
 24 38  1  0  0  0  0
 25 39  1  0  0  0  0
 25 40  1  0  0  0  0
M  CHG  1   1   1
M  END
$$$$
