FR2
 OpenBabel04041915513D

 36 37  0  0  1  0  0  0  0  0999 V2000
   50.4394   54.1313   21.0095 C   0  0  0  0  0  0  0  0  0  0  0  0
   50.5121   55.0749   21.9884 N   0  3  0  0  0  0  0  0  0  0  0  0
   50.5750   54.4170   23.1888 C   0  0  0  0  0  0  0  0  0  0  0  0
   50.4636   53.1156   23.0341 N   0  0  0  0  0  0  0  0  0  0  0  0
   50.3464   52.9170   21.6699 C   0  0  0  0  0  0  0  0  0  0  0  0
   50.1876   51.6396   20.9930 C   0  0  0  0  0  0  0  0  0  0  0  0
   50.1134   51.5087   19.7829 O   0  0  0  0  0  0  0  0  0  0  0  0
   50.1362   50.5528   21.8166 N   0  0  0  0  0  0  0  0  0  0  0  0
   50.5503   56.5263   21.8339 C   0  0  1  0  0  0  0  0  0  0  0  0
   51.9674   57.0109   21.5018 C   0  0  0  0  0  0  0  0  0  0  0  0
   52.8861   56.5048   22.4673 O   0  0  0  0  0  0  0  0  0  0  0  0
   49.5280   57.0496   20.8243 C   0  0  0  0  0  0  0  0  0  0  0  0
   48.1093   56.5455   21.1141 C   0  0  0  0  0  0  0  0  0  0  0  0
   47.0243   57.1627   20.2719 C   0  0  0  0  0  0  0  0  0  0  0  0
   45.7068   56.7196   20.4446 C   0  0  0  0  0  0  0  0  0  0  0  0
   44.6725   57.2660   19.6880 C   0  0  0  0  0  0  0  0  0  0  0  0
   44.9457   58.2417   18.7292 C   0  0  0  0  0  0  0  0  0  0  0  0
   46.2508   58.6828   18.5414 C   0  0  0  0  0  0  0  0  0  0  0  0
   47.2789   58.1588   19.3167 C   0  0  0  0  0  0  0  0  0  0  0  0
   50.4055   54.3494   19.9493 H   0  0  0  0  0  0  0  0  0  0  0  0
   50.7184   54.9430   24.1268 H   0  0  0  0  0  0  0  0  0  0  0  0
   50.0223   49.6429   21.3969 H   0  0  0  0  0  0  0  0  0  0  0  0
   50.1683   50.6646   22.8234 H   0  0  0  0  0  0  0  0  0  0  0  0
   50.2873   56.9336   22.8194 H   0  0  0  0  0  0  0  0  0  0  0  0
   52.0232   58.1057   21.5416 H   0  0  0  0  0  0  0  0  0  0  0  0
   52.2977   56.7012   20.5040 H   0  0  0  0  0  0  0  0  0  0  0  0
   52.8196   55.5307   22.4453 H   0  0  0  0  0  0  0  0  0  0  0  0
   49.8205   56.7672   19.8037 H   0  0  0  0  0  0  0  0  0  0  0  0
   49.5492   58.1464   20.8719 H   0  0  0  0  0  0  0  0  0  0  0  0
   47.8727   56.7184   22.1708 H   0  0  0  0  0  0  0  0  0  0  0  0
   48.0692   55.4590   20.9472 H   0  0  0  0  0  0  0  0  0  0  0  0
   45.4801   55.9341   21.1656 H   0  0  0  0  0  0  0  0  0  0  0  0
   43.6527   56.9231   19.8376 H   0  0  0  0  0  0  0  0  0  0  0  0
   44.1429   58.6498   18.1227 H   0  0  0  0  0  0  0  0  0  0  0  0
   46.4750   59.4338   17.7879 H   0  0  0  0  0  0  0  0  0  0  0  0
   48.2814   58.5389   19.1505 H   0  0  0  0  0  0  0  0  0  0  0  0
  1  2  1  0  0  0  0
  1  5  2  0  0  0  0
  1 20  1  0  0  0  0
  2  3  2  0  0  0  0
  2  9  1  0  0  0  0
  3  4  1  0  0  0  0
  3 21  1  0  0  0  0
  4  5  1  0  0  0  0
  5  6  1  0  0  0  0
  6  7  2  0  0  0  0
  6  8  1  0  0  0  0
  8 22  1  0  0  0  0
  8 23  1  0  0  0  0
  9 10  1  0  0  0  0
  9 12  1  0  0  0  0
  9 24  1  1  0  0  0
 10 11  1  0  0  0  0
 10 25  1  0  0  0  0
 10 26  1  0  0  0  0
 11 27  1  0  0  0  0
 12 13  1  0  0  0  0
 12 28  1  0  0  0  0
 12 29  1  0  0  0  0
 13 14  1  0  0  0  0
 13 30  1  0  0  0  0
 13 31  1  0  0  0  0
 14 15  2  0  0  0  0
 14 19  1  0  0  0  0
 15 16  1  0  0  0  0
 15 32  1  0  0  0  0
 16 17  2  0  0  0  0
 16 33  1  0  0  0  0
 17 18  1  0  0  0  0
 17 34  1  0  0  0  0
 18 19  2  0  0  0  0
 18 35  1  0  0  0  0
 19 36  1  0  0  0  0
M  CHG  1   2   1
M  END
$$$$
