FR4
 OpenBabel04041917073D

 60 63  0  0  1  0  0  0  0  0999 V2000
   51.8946   54.7173   20.9129 C   0  0  0  0  0  0  0  0  0  0  0  0
   51.9082   55.6668   21.8878 N   0  3  0  0  0  0  0  0  0  0  0  0
   51.8611   55.0116   23.0948 C   0  0  0  0  0  0  0  0  0  0  0  0
   51.7924   53.7136   22.9294 N   0  0  0  0  0  0  0  0  0  0  0  0
   51.7614   53.5037   21.5622 C   0  0  0  0  0  0  0  0  0  0  0  0
   51.5849   52.2119   20.8984 C   0  0  0  0  0  0  0  0  0  0  0  0
   51.3091   52.1011   19.7054 O   0  0  0  0  0  0  0  0  0  0  0  0
   51.7313   51.1241   21.7043 N   0  0  0  0  0  0  0  0  0  0  0  0
   51.9678   57.1207   21.7199 C   0  0  1  0  0  0  0  0  0  0  0  0
   53.4326   57.5616   21.5461 C   0  0  0  0  0  0  0  0  0  0  0  0
   54.2129   57.2377   22.6953 O   0  0  0  0  0  0  0  0  0  0  0  0
   51.1134   57.6368   20.5455 C   0  0  0  0  0  0  0  0  0  0  0  0
   49.6462   57.1966   20.5893 C   0  0  0  0  0  0  0  0  0  0  0  0
   49.0242   57.3146   19.2750 N   0  3  1  0  0  0  0  0  0  0  0  0
   48.5386   58.4704   18.7231 C   0  0  0  0  0  0  0  0  0  0  0  0
   48.0972   58.1810   17.4514 C   0  0  0  0  0  0  0  0  0  0  0  0
   48.3107   56.8007   17.2243 C   0  0  1  0  0  0  0  0  0  0  0  0
   48.8955   56.2774   18.3788 C   0  0  1  0  0  0  0  0  0  0  0  0
   48.0560   55.9445   16.1389 C   0  0  0  0  0  0  0  0  0  0  0  0
   48.4081   54.5974   16.2344 C   0  0  0  0  0  0  0  0  0  0  0  0
   49.0059   54.0916   17.3845 C   0  0  2  0  0  0  0  0  0  0  0  0
   49.2445   54.9269   18.4736 C   0  0  0  0  0  0  0  0  0  0  0  0
   49.4105   52.7574   17.5321 N   0  0  0  0  0  0  0  0  0  0  0  0
   49.1705   51.7283   16.6491 C   0  0  0  0  0  0  0  0  0  0  0  0
   48.5578   51.8007   15.5898 O   0  0  0  0  0  0  0  0  0  0  0  0
   49.8212   50.4512   17.1171 C   0  0  0  0  0  0  0  0  0  0  0  0
   49.1840   49.2411   16.4478 C   0  0  0  0  0  0  0  0  0  0  0  0
   47.5738   48.8866   18.3908 C   0  0  0  0  0  0  0  0  0  0  0  0
   47.8277   48.8770   17.0109 C   0  0  0  0  0  0  0  0  0  0  0  0
   46.8080   48.4651   16.1436 C   0  0  0  0  0  0  0  0  0  0  0  0
   45.5676   48.0670   16.6483 C   0  0  0  0  0  0  0  0  0  0  0  0
   45.3319   48.0713   18.0199 C   0  0  0  0  0  0  0  0  0  0  0  0
   46.3384   48.4915   18.8983 C   0  0  0  0  0  0  0  0  0  0  0  0
   51.9200   54.9435   19.8561 H   0  0  0  0  0  0  0  0  0  0  0  0
   51.8837   55.5452   24.0401 H   0  0  0  0  0  0  0  0  0  0  0  0
   51.6550   50.1989   21.3048 H   0  0  0  0  0  0  0  0  0  0  0  0
   51.9376   51.2449   22.6879 H   0  0  0  0  0  0  0  0  0  0  0  0
   51.5831   57.5503   22.6537 H   0  0  0  0  0  0  0  0  0  0  0  0
   53.4887   58.6479   21.4233 H   0  0  0  0  0  0  0  0  0  0  0  0
   53.8980   57.1019   20.6689 H   0  0  0  0  0  0  0  0  0  0  0  0
   54.2910   56.2661   22.7480 H   0  0  0  0  0  0  0  0  0  0  0  0
   51.5707   57.3195   19.5987 H   0  0  0  0  0  0  0  0  0  0  0  0
   51.1408   58.7332   20.5401 H   0  0  0  0  0  0  0  0  0  0  0  0
   49.0634   57.7919   21.2996 H   0  0  0  0  0  0  0  0  0  0  0  0
   49.5375   56.1544   20.9017 H   0  0  0  0  0  0  0  0  0  0  0  0
   48.5472   59.4073   19.2607 H   0  0  0  0  0  0  0  0  0  0  0  0
   47.6618   58.8770   16.7474 H   0  0  0  0  0  0  0  0  0  0  0  0
   47.6065   56.3187   15.2226 H   0  0  0  0  0  0  0  0  0  0  0  0
   48.2081   53.9681   15.3746 H   0  0  0  0  0  0  0  0  0  0  0  0
   49.6742   54.5245   19.3833 H   0  0  0  0  0  0  0  0  0  0  0  0
   49.9331   52.5272   18.3795 H   0  0  0  0  0  0  0  0  0  0  0  0
   49.7670   50.3917   18.2074 H   0  0  0  0  0  0  0  0  0  0  0  0
   50.8820   50.5129   16.8527 H   0  0  0  0  0  0  0  0  0  0  0  0
   49.8423   48.3746   16.5709 H   0  0  0  0  0  0  0  0  0  0  0  0
   49.1019   49.4190   15.3669 H   0  0  0  0  0  0  0  0  0  0  0  0
   48.3323   49.2000   19.1016 H   0  0  0  0  0  0  0  0  0  0  0  0
   46.9720   48.4571   15.0674 H   0  0  0  0  0  0  0  0  0  0  0  0
   44.7848   47.7521   15.9647 H   0  0  0  0  0  0  0  0  0  0  0  0
   44.3740   47.7540   18.4129 H   0  0  0  0  0  0  0  0  0  0  0  0
   46.1605   48.5082   19.9652 H   0  0  0  0  0  0  0  0  0  0  0  0
  1  2  1  0  0  0  0
  1  5  2  0  0  0  0
  1 34  1  0  0  0  0
  2  3  2  0  0  0  0
  2  9  1  0  0  0  0
  3  4  1  0  0  0  0
  3 35  1  0  0  0  0
  4  5  1  0  0  0  0
  5  6  1  0  0  0  0
  6  7  2  0  0  0  0
  6  8  1  0  0  0  0
  8 36  1  0  0  0  0
  8 37  1  0  0  0  0
  9 10  1  0  0  0  0
  9 12  1  0  0  0  0
  9 38  1  1  0  0  0
 10 11  1  0  0  0  0
 10 39  1  0  0  0  0
 10 40  1  0  0  0  0
 11 41  1  0  0  0  0
 12 13  1  0  0  0  0
 12 42  1  0  0  0  0
 12 43  1  0  0  0  0
 13 44  1  0  0  0  0
 13 45  1  0  0  0  0
 14 13  1  6  0  0  0
 14 15  1  0  0  0  0
 14 18  1  0  0  0  0
 15 16  1  0  0  0  0
 15 46  1  0  0  0  0
 16 47  1  0  0  0  0
 17 16  1  1  0  0  0
 17 18  1  0  0  0  0
 17 19  1  0  0  0  0
 18 22  1  6  0  0  0
 19 20  1  0  0  0  0
 19 48  1  0  0  0  0
 20 21  1  0  0  0  0
 20 49  1  0  0  0  0
 21 22  1  0  0  0  0
 21 23  1  6  0  0  0
 22 50  1  0  0  0  0
 23 24  1  0  0  0  0
 23 51  1  0  0  0  0
 24 25  2  0  0  0  0
 24 26  1  0  0  0  0
 26 27  1  0  0  0  0
 26 52  1  0  0  0  0
 26 53  1  0  0  0  0
 27 29  1  0  0  0  0
 27 54  1  0  0  0  0
 27 55  1  0  0  0  0
 28 29  1  0  0  0  0
 28 33  1  0  0  0  0
 28 56  1  0  0  0  0
 29 30  1  0  0  0  0
 30 31  1  0  0  0  0
 30 57  1  0  0  0  0
 31 32  1  0  0  0  0
 31 58  1  0  0  0  0
 32 33  1  0  0  0  0
 32 59  1  0  0  0  0
 33 60  1  0  0  0  0
M  CHG  2   2   1  14   1
M  END
$$$$
