FR9
 OpenBabel04041916073D

 59 62  0  0  1  0  0  0  0  0999 V2000
   52.0388   54.5774   20.7838 C   0  0  0  0  0  0  0  0  0  0  0  0
   52.0535   55.5379   21.7533 N   0  3  0  0  0  0  0  0  0  0  0  0
   51.7962   54.8896   22.9271 C   0  0  0  0  0  0  0  0  0  0  0  0
   51.6335   53.5936   22.7833 N   0  0  0  0  0  0  0  0  0  0  0  0
   51.8133   53.3674   21.4326 C   0  0  0  0  0  0  0  0  0  0  0  0
   51.7213   52.0495   20.7732 C   0  0  0  0  0  0  0  0  0  0  0  0
   51.8809   51.8987   19.5902 O   0  0  0  0  0  0  0  0  0  0  0  0
   51.3943   51.0100   21.5827 N   0  0  0  0  0  0  0  0  0  0  0  0
   52.1114   57.0055   21.6213 C   0  0  1  0  0  0  0  0  0  0  0  0
   53.5292   57.6384   21.6022 C   0  0  0  0  0  0  0  0  0  0  0  0
   54.3974   57.4098   22.7037 O   0  0  0  0  0  0  0  0  0  0  0  0
   51.3876   57.4642   20.3441 C   0  0  0  0  0  0  0  0  0  0  0  0
   49.8797   57.5662   20.5386 C   0  0  0  0  0  0  0  0  0  0  0  0
   49.2172   57.7127   19.2538 N   0  3  1  0  0  0  0  0  0  0  0  0
   48.7286   58.8681   18.7124 C   0  0  0  0  0  0  0  0  0  0  0  0
   48.2695   58.5807   17.4448 C   0  0  0  0  0  0  0  0  0  0  0  0
   48.4529   57.2030   17.2222 C   0  0  1  0  0  0  0  0  0  0  0  0
   49.0443   56.6930   18.3674 C   0  0  2  0  0  0  0  0  0  0  0  0
   48.1490   56.3474   16.1581 C   0  0  0  0  0  0  0  0  0  0  0  0
   48.4521   54.9966   16.2889 C   0  0  0  0  0  0  0  0  0  0  0  0
   49.0458   54.5318   17.4561 C   0  0  1  0  0  0  0  0  0  0  0  0
   49.3695   55.3607   18.5070 C   0  0  0  0  0  0  0  0  0  0  0  0
   49.3347   53.2130   17.7175 N   0  0  0  0  0  0  0  0  0  0  0  0
   49.1864   52.1870   16.8395 C   0  0  0  0  0  0  0  0  0  0  0  0
   48.7655   52.2600   15.6986 O   0  0  0  0  0  0  0  0  0  0  0  0
   49.5928   51.0338   17.4198 N   0  0  0  0  0  0  0  0  0  0  0  0
   49.2950   49.7907   16.7851 C   0  0  0  0  0  0  0  0  0  0  0  0
   47.7275   49.3316   18.7166 C   0  0  0  0  0  0  0  0  0  0  0  0
   48.0356   49.2069   17.3544 C   0  0  0  0  0  0  0  0  0  0  0  0
   47.1603   48.4982   16.5299 C   0  0  0  0  0  0  0  0  0  0  0  0
   45.9759   47.9735   17.0479 C   0  0  0  0  0  0  0  0  0  0  0  0
   45.6667   48.1302   18.3973 C   0  0  0  0  0  0  0  0  0  0  0  0
   46.5643   48.7776   19.2363 C   0  0  0  0  0  0  0  0  0  0  0  0
   52.1337   54.7275   19.7083 H   0  0  0  0  0  0  0  0  0  0  0  0
   51.7271   55.4203   23.8836 H   0  0  0  0  0  0  0  0  0  0  0  0
   51.3854   50.0832   21.1775 H   0  0  0  0  0  0  0  0  0  0  0  0
   51.1740   51.1523   22.5639 H   0  0  0  0  0  0  0  0  0  0  0  0
   51.5640   57.4136   22.4833 H   0  0  0  0  0  0  0  0  0  0  0  0
   53.3877   58.7300   21.5913 H   0  0  0  0  0  0  0  0  0  0  0  0
   54.0378   57.3612   20.6779 H   0  0  0  0  0  0  0  0  0  0  0  0
   54.7222   56.4913   22.7015 H   0  0  0  0  0  0  0  0  0  0  0  0
   51.6180   56.7748   19.5243 H   0  0  0  0  0  0  0  0  0  0  0  0
   51.7549   58.4406   20.0115 H   0  0  0  0  0  0  0  0  0  0  0  0
   49.6231   58.4352   21.1443 H   0  0  0  0  0  0  0  0  0  0  0  0
   49.4818   56.6706   21.0357 H   0  0  0  0  0  0  0  0  0  0  0  0
   48.7390   59.7953   19.2472 H   0  0  0  0  0  0  0  0  0  0  0  0
   47.8243   59.2860   16.7572 H   0  0  0  0  0  0  0  0  0  0  0  0
   47.6618   56.7204   15.2701 H   0  0  0  0  0  0  0  0  0  0  0  0
   48.1722   54.3329   15.4790 H   0  0  0  0  0  0  0  0  0  0  0  0
   49.8243   54.9707   19.4042 H   0  0  0  0  0  0  0  0  0  0  0  0
   49.6034   52.9824   18.6617 H   0  0  0  0  0  0  0  0  0  0  0  0
   49.9236   51.0598   18.3718 H   0  0  0  0  0  0  0  0  0  0  0  0
   50.1435   49.1341   16.9622 H   0  0  0  0  0  0  0  0  0  0  0  0
   49.1906   49.9582   15.7060 H   0  0  0  0  0  0  0  0  0  0  0  0
   48.3857   49.8805   19.3815 H   0  0  0  0  0  0  0  0  0  0  0  0
   47.3924   48.3710   15.4752 H   0  0  0  0  0  0  0  0  0  0  0  0
   45.2979   47.4381   16.3931 H   0  0  0  0  0  0  0  0  0  0  0  0
   44.7334   47.7481   18.8012 H   0  0  0  0  0  0  0  0  0  0  0  0
   46.3624   48.8527   20.2993 H   0  0  0  0  0  0  0  0  0  0  0  0
  1  2  1  0  0  0  0
  1  5  2  0  0  0  0
  1 34  1  0  0  0  0
  2  3  2  0  0  0  0
  2  9  1  0  0  0  0
  3  4  1  0  0  0  0
  3 35  1  0  0  0  0
  4  5  1  0  0  0  0
  5  6  1  0  0  0  0
  6  7  2  0  0  0  0
  6  8  1  0  0  0  0
  8 36  1  0  0  0  0
  8 37  1  0  0  0  0
  9 10  1  0  0  0  0
  9 12  1  0  0  0  0
  9 38  1  1  0  0  0
 10 11  1  0  0  0  0
 10 39  1  0  0  0  0
 10 40  1  0  0  0  0
 11 41  1  0  0  0  0
 12 13  1  0  0  0  0
 12 42  1  0  0  0  0
 12 43  1  0  0  0  0
 13 44  1  0  0  0  0
 13 45  1  0  0  0  0
 14 13  1  6  0  0  0
 14 15  1  0  0  0  0
 14 18  1  0  0  0  0
 15 16  1  0  0  0  0
 15 46  1  0  0  0  0
 16 47  1  0  0  0  0
 17 16  1  1  0  0  0
 17 18  1  0  0  0  0
 17 19  1  0  0  0  0
 18 22  1  1  0  0  0
 19 20  1  0  0  0  0
 19 48  1  0  0  0  0
 20 21  1  0  0  0  0
 20 49  1  0  0  0  0
 21 22  1  0  0  0  0
 21 23  1  1  0  0  0
 22 50  1  0  0  0  0
 23 24  1  0  0  0  0
 23 51  1  0  0  0  0
 24 25  2  0  0  0  0
 24 26  1  0  0  0  0
 26 27  1  0  0  0  0
 26 52  1  0  0  0  0
 27 29  1  0  0  0  0
 27 53  1  0  0  0  0
 27 54  1  0  0  0  0
 28 29  1  0  0  0  0
 28 33  1  0  0  0  0
 28 55  1  0  0  0  0
 29 30  1  0  0  0  0
 30 31  1  0  0  0  0
 30 56  1  0  0  0  0
 31 32  1  0  0  0  0
 31 57  1  0  0  0  0
 32 33  1  0  0  0  0
 32 58  1  0  0  0  0
 33 59  1  0  0  0  0
M  CHG  2   2   1  14   1
M  END
$$$$
