FRA
 OpenBabel04041913523D

 53 56  0  0  1  0  0  0  0  0999 V2000
   15.6737    7.0635   -2.1996 C   0  0  0  0  0  0  0  0  0  0  0  0
   15.9652    5.7457   -1.5304 C   0  0  0  0  0  0  0  0  0  0  0  0
   15.3918    4.7220   -1.9305 O   0  0  0  0  0  0  0  0  0  0  0  0
   16.8865    5.6058   -0.5332 N   0  0  0  0  0  0  0  0  0  0  0  0
   17.8064    6.5009    0.0636 C   0  0  0  0  0  0  0  0  0  0  0  0
   17.4388    7.7387    0.5716 C   0  0  0  0  0  0  0  0  0  0  0  0
   18.3682    8.5143    1.3089 C   0  0  0  0  0  0  0  0  0  0  0  0
   19.7224    8.1531    1.4949 C   0  0  0  0  0  0  0  0  0  0  0  0
   20.0780    6.9061    0.9473 C   0  0  0  0  0  0  0  0  0  0  0  0
   19.1219    6.0754    0.2883 C   0  0  0  0  0  0  0  0  0  0  0  0
   20.6434    9.0090    2.2093 N   0  0  0  0  0  0  0  0  0  0  0  0
   20.2913    9.8233    3.2705 C   0  0  0  0  0  0  0  0  0  0  0  0
   21.4987   10.6217    3.7398 C   0  0  1  0  0  0  0  0  0  0  0  0
   22.6396   10.1958    2.8167 C   0  0  1  0  0  0  0  0  0  0  0  0
   21.9643    9.1964    1.8625 C   0  0  0  0  0  0  0  0  0  0  0  0
   19.2069    9.8824    3.8424 O   0  0  0  0  0  0  0  0  0  0  0  0
   22.5361    8.7117    0.9081 O   0  0  0  0  0  0  0  0  0  0  0  0
   21.3045   12.1585    3.7365 C   0  0  2  0  0  0  0  0  0  0  0  0
   21.0660   12.6774    2.3097 C   0  0  0  0  0  0  0  0  0  0  0  0
   22.2217   12.2535    1.3889 C   0  0  0  0  0  0  0  0  0  0  0  0
   23.7746   12.3959    3.3334 C   0  0  0  0  0  0  0  0  0  0  0  0
   22.6053   12.8130    4.2372 C   0  0  0  0  0  0  0  0  0  0  0  0
   23.3048   11.4536    2.1696 C   0  0  1  0  0  0  0  0  0  0  0  0
   24.3986   11.1006    1.2542 N   0  0  0  0  0  0  0  0  0  0  0  0
   25.7069   10.8268    1.5486 C   0  0  0  0  0  0  0  0  0  0  0  0
   26.2560   11.0186    2.6227 O   0  0  0  0  0  0  0  0  0  0  0  0
   26.2875   10.3189    0.4405 O   0  0  0  0  0  0  0  0  0  0  0  0
   27.7110   10.0259    0.4904 C   0  0  0  0  0  0  0  0  0  0  0  0
   28.1580    9.2272   -0.7519 C   0  0  0  0  0  0  0  0  0  0  0  0
   29.1251    8.4274   -0.5513 O   0  0  0  0  0  0  0  0  0  0  0  0
   27.5573    9.4743   -1.8400 O   0  0  0  0  0  0  0  0  0  0  0  0
   14.9604    6.8833   -3.0140 H   0  0  0  0  0  0  0  0  0  0  0  0
   16.5709    7.4965   -2.6458 H   0  0  0  0  0  0  0  0  0  0  0  0
   15.1978    7.7529   -1.5034 H   0  0  0  0  0  0  0  0  0  0  0  0
   17.0079    4.6229   -0.3029 H   0  0  0  0  0  0  0  0  0  0  0  0
   16.4090    8.0730    0.5133 H   0  0  0  0  0  0  0  0  0  0  0  0
   18.0114    9.4613    1.7201 H   0  0  0  0  0  0  0  0  0  0  0  0
   21.0924    6.5236    1.0550 H   0  0  0  0  0  0  0  0  0  0  0  0
   19.4492    5.1062   -0.0798 H   0  0  0  0  0  0  0  0  0  0  0  0
   21.7282   10.2945    4.7630 H   0  0  0  0  0  0  0  0  0  0  0  0
   23.3938    9.6382    3.3815 H   0  0  0  0  0  0  0  0  0  0  0  0
   20.4737   12.4546    4.3884 H   0  0  0  0  0  0  0  0  0  0  0  0
   20.1131   12.3030    1.9195 H   0  0  0  0  0  0  0  0  0  0  0  0
   20.9809   13.7721    2.3134 H   0  0  0  0  0  0  0  0  0  0  0  0
   21.8265   11.6633    0.5544 H   0  0  0  0  0  0  0  0  0  0  0  0
   22.6658   13.1481    0.9285 H   0  0  0  0  0  0  0  0  0  0  0  0
   24.2614   13.2967    2.9347 H   0  0  0  0  0  0  0  0  0  0  0  0
   24.5173   11.9017    3.9692 H   0  0  0  0  0  0  0  0  0  0  0  0
   22.8135   12.5194    5.2736 H   0  0  0  0  0  0  0  0  0  0  0  0
   22.5165   13.9072    4.2469 H   0  0  0  0  0  0  0  0  0  0  0  0
   24.1626   10.7145    0.3494 H   0  0  0  0  0  0  0  0  0  0  0  0
   27.9477    9.4537    1.3943 H   0  0  0  0  0  0  0  0  0  0  0  0
   28.2643   10.9712    0.4915 H   0  0  0  0  0  0  0  0  0  0  0  0
  1  2  1  0  0  0  0
  1 32  1  0  0  0  0
  1 33  1  0  0  0  0
  1 34  1  0  0  0  0
  2  4  1  0  0  0  0
  2  3  2  0  0  0  0
  4  5  1  0  0  0  0
  4 35  1  0  0  0  0
  5 10  2  0  0  0  0
  5  6  1  0  0  0  0
  6  7  2  0  0  0  0
  6 36  1  0  0  0  0
  7  8  1  0  0  0  0
  7 37  1  0  0  0  0
  8 11  1  0  0  0  0
  8  9  2  0  0  0  0
  9 10  1  0  0  0  0
  9 38  1  0  0  0  0
 10 39  1  0  0  0  0
 11 15  1  0  0  0  0
 11 12  1  0  0  0  0
 12 16  2  0  0  0  0
 12 13  1  0  0  0  0
 13 18  1  0  0  0  0
 13 14  1  0  0  0  0
 13 40  1  1  0  0  0
 14 23  1  0  0  0  0
 14 15  1  0  0  0  0
 14 41  1  1  0  0  0
 15 17  2  0  0  0  0
 18 19  1  0  0  0  0
 18 22  1  0  0  0  0
 18 42  1  1  0  0  0
 19 20  1  0  0  0  0
 19 43  1  0  0  0  0
 19 44  1  0  0  0  0
 20 23  1  0  0  0  0
 20 45  1  0  0  0  0
 20 46  1  0  0  0  0
 21 23  1  0  0  0  0
 21 22  1  0  0  0  0
 21 47  1  0  0  0  0
 21 48  1  0  0  0  0
 22 49  1  0  0  0  0
 22 50  1  0  0  0  0
 23 24  1  6  0  0  0
 24 25  1  0  0  0  0
 24 51  1  0  0  0  0
 25 27  1  0  0  0  0
 25 26  2  0  0  0  0
 27 28  1  0  0  0  0
 28 29  1  0  0  0  0
 28 52  1  0  0  0  0
 28 53  1  0  0  0  0
 29 31  2  0  0  0  0
 29 30  1  0  0  0  0
M  END
$$$$
