FRC
 OpenBabel04041917213D

 46 48  0  0  1  0  0  0  0  0999 V2000
   50.7599   54.0897   21.0963 C   0  0  0  0  0  0  0  0  0  0  0  0
   50.8266   54.9747   22.1306 N   0  3  0  0  0  0  0  0  0  0  0  0
   50.6663   54.2513   23.2835 C   0  0  0  0  0  0  0  0  0  0  0  0
   50.5284   52.9636   23.0434 N   0  0  0  0  0  0  0  0  0  0  0  0
   50.5438   52.8453   21.6626 C   0  0  0  0  0  0  0  0  0  0  0  0
   50.3027   51.6126   20.9144 C   0  0  0  0  0  0  0  0  0  0  0  0
   50.2013   51.5617   19.6927 O   0  0  0  0  0  0  0  0  0  0  0  0
   50.1601   50.4932   21.6760 N   0  0  0  0  0  0  0  0  0  0  0  0
   50.9122   56.4323   22.0634 C   0  0  1  0  0  0  0  0  0  0  0  0
   52.3427   56.9560   21.8565 C   0  0  1  0  0  0  0  0  0  0  0  0
   53.1778   56.5986   22.9585 O   0  0  0  0  0  0  0  0  0  0  0  0
   49.9562   57.0089   21.0189 C   0  0  0  0  0  0  0  0  0  0  0  0
   48.5310   57.0355   21.5643 C   0  0  0  0  0  0  0  0  0  0  0  0
   52.9431   56.5073   20.5296 C   0  0  0  0  0  0  0  0  0  0  0  0
   47.6239   57.5229   20.5851 O   0  0  0  0  0  0  0  0  0  0  0  0
   46.8707   53.2326   15.8759 C   0  0  0  0  0  0  0  0  0  0  0  0
   46.5749   54.5938   15.9656 C   0  0  0  0  0  0  0  0  0  0  0  0
   46.8610   55.3128   17.1340 C   0  0  0  0  0  0  0  0  0  0  0  0
   47.4500   54.6469   18.2295 C   0  0  0  0  0  0  0  0  0  0  0  0
   47.7579   53.2855   18.1183 C   0  0  0  0  0  0  0  0  0  0  0  0
   47.4656   52.5810   16.9504 C   0  0  0  0  0  0  0  0  0  0  0  0
   46.5673   56.6768   17.2371 C   0  0  0  0  0  0  0  0  0  0  0  0
   46.8339   57.3718   18.4153 C   0  0  0  0  0  0  0  0  0  0  0  0
   47.3999   56.7168   19.5024 C   0  0  0  0  0  0  0  0  0  0  0  0
   47.6997   55.3554   19.4116 C   0  0  0  0  0  0  0  0  0  0  0  0
   50.8348   54.3580   20.0514 H   0  0  0  0  0  0  0  0  0  0  0  0
   50.6323   54.7213   24.2583 H   0  0  0  0  0  0  0  0  0  0  0  0
   49.9701   49.6163   21.2137 H   0  0  0  0  0  0  0  0  0  0  0  0
   50.2618   50.5493   22.6793 H   0  0  0  0  0  0  0  0  0  0  0  0
   50.5854   56.7916   23.0549 H   0  0  0  0  0  0  0  0  0  0  0  0
   52.3212   58.0526   21.8481 H   0  0  0  0  0  0  0  0  0  0  0  0
   52.8921   57.1056   23.7327 H   0  0  0  0  0  0  0  0  0  0  0  0
   50.0082   56.4328   20.0894 H   0  0  0  0  0  0  0  0  0  0  0  0
   50.2434   58.0256   20.7214 H   0  0  0  0  0  0  0  0  0  0  0  0
   48.4933   57.7401   22.4041 H   0  0  0  0  0  0  0  0  0  0  0  0
   48.2032   56.0714   21.9661 H   0  0  0  0  0  0  0  0  0  0  0  0
   53.9808   56.8311   20.4244 H   0  0  0  0  0  0  0  0  0  0  0  0
   52.3636   56.9287   19.7016 H   0  0  0  0  0  0  0  0  0  0  0  0
   52.9461   55.4201   20.4186 H   0  0  0  0  0  0  0  0  0  0  0  0
   46.6443   52.6849   14.9664 H   0  0  0  0  0  0  0  0  0  0  0  0
   46.1084   55.0912   15.1194 H   0  0  0  0  0  0  0  0  0  0  0  0
   48.2271   52.7553   18.9419 H   0  0  0  0  0  0  0  0  0  0  0  0
   47.7014   51.5228   16.8876 H   0  0  0  0  0  0  0  0  0  0  0  0
   46.1325   57.2111   16.3974 H   0  0  0  0  0  0  0  0  0  0  0  0
   46.6041   58.4339   18.4788 H   0  0  0  0  0  0  0  0  0  0  0  0
   48.1488   54.8185   20.2408 H   0  0  0  0  0  0  0  0  0  0  0  0
  1  2  1  0  0  0  0
  1  5  2  0  0  0  0
  1 26  1  0  0  0  0
  2  3  2  0  0  0  0
  2  9  1  0  0  0  0
  3  4  1  0  0  0  0
  3 27  1  0  0  0  0
  4  5  1  0  0  0  0
  5  6  1  0  0  0  0
  6  7  2  0  0  0  0
  6  8  1  0  0  0  0
  8 28  1  0  0  0  0
  8 29  1  0  0  0  0
  9 10  1  0  0  0  0
  9 12  1  0  0  0  0
  9 30  1  1  0  0  0
 10 11  1  0  0  0  0
 10 14  1  0  0  0  0
 10 31  1  6  0  0  0
 11 32  1  0  0  0  0
 12 13  1  0  0  0  0
 12 33  1  0  0  0  0
 12 34  1  0  0  0  0
 13 15  1  0  0  0  0
 13 35  1  0  0  0  0
 13 36  1  0  0  0  0
 14 37  1  0  0  0  0
 14 38  1  0  0  0  0
 14 39  1  0  0  0  0
 15 24  1  0  0  0  0
 16 17  2  0  0  0  0
 16 21  1  0  0  0  0
 16 40  1  0  0  0  0
 17 18  1  0  0  0  0
 17 41  1  0  0  0  0
 18 19  2  0  0  0  0
 18 22  1  0  0  0  0
 19 20  1  0  0  0  0
 19 25  1  0  0  0  0
 20 21  2  0  0  0  0
 20 42  1  0  0  0  0
 21 43  1  0  0  0  0
 22 23  2  0  0  0  0
 22 44  1  0  0  0  0
 23 24  1  0  0  0  0
 23 45  1  0  0  0  0
 24 25  2  0  0  0  0
 25 46  1  0  0  0  0
M  CHG  1   2   1
M  END
$$$$
