FUN
 OpenBabel04041917553D

 31 32  0  0  0  0  0  0  0  0999 V2000
   15.5528    1.2459   16.2172 N   0  0  0  0  0  0  0  0  0  0  0  0
   15.0509    2.7166   16.8506 S   0  0  0  0  0  0  0  0  0  0  0  0
   13.6061    2.6716   16.8083 O   0  0  0  0  0  0  0  0  0  0  0  0
   15.7918    2.8670   18.0812 O   0  0  0  0  0  0  0  0  0  0  0  0
   15.5835    3.9659   15.7264 C   0  0  0  0  0  0  0  0  0  0  0  0
   15.2478    5.2940   15.9721 C   0  0  0  0  0  0  0  0  0  0  0  0
   14.3869    5.8273   17.3751 Cl  0  0  0  0  0  0  0  0  0  0  0  0
   15.6042    6.2780   15.0454 C   0  0  0  0  0  0  0  0  0  0  0  0
   16.3165    5.9836   13.8728 C   0  0  0  0  0  0  0  0  0  0  0  0
   16.5379    6.9579   12.9013 N   0  0  0  0  0  0  0  0  0  0  0  0
   16.4187    8.3860   13.1166 C   0  0  0  0  0  0  0  0  0  0  0  0
   17.4435    9.0294   13.9953 C   0  0  0  0  0  0  0  0  0  0  0  0
   18.7130    9.5107   13.7626 C   0  0  0  0  0  0  0  0  0  0  0  0
   19.1924    9.9997   15.0020 C   0  0  0  0  0  0  0  0  0  0  0  0
   18.1844    9.7895   15.9115 C   0  0  0  0  0  0  0  0  0  0  0  0
   17.1091    9.2211   15.3074 O   0  0  0  0  0  0  0  0  0  0  0  0
   16.6866    4.6389   13.6375 C   0  0  0  0  0  0  0  0  0  0  0  0
   16.3143    3.6482   14.5791 C   0  0  0  0  0  0  0  0  0  0  0  0
   17.4842    4.1948   12.4133 C   0  0  0  0  0  0  0  0  0  0  0  0
   17.9013    5.0958   11.6137 O   0  0  0  0  0  0  0  0  0  0  0  0
   17.6917    2.9461   12.2941 O   0  0  0  0  0  0  0  0  0  0  0  0
   15.3716    1.0958   15.2281 H   0  0  0  0  0  0  0  0  0  0  0  0
   16.4426    0.9307   16.5951 H   0  0  0  0  0  0  0  0  0  0  0  0
   15.3046    7.3007   15.2514 H   0  0  0  0  0  0  0  0  0  0  0  0
   17.2575    6.6440   12.2250 H   0  0  0  0  0  0  0  0  0  0  0  0
   15.4132    8.6262   13.4854 H   0  0  0  0  0  0  0  0  0  0  0  0
   16.4717    8.8708   12.1336 H   0  0  0  0  0  0  0  0  0  0  0  0
   19.2283    9.4902   12.8120 H   0  0  0  0  0  0  0  0  0  0  0  0
   20.1592   10.4360   15.2086 H   0  0  0  0  0  0  0  0  0  0  0  0
   18.0790    9.9720   16.9719 H   0  0  0  0  0  0  0  0  0  0  0  0
   16.6151    2.6256   14.3686 H   0  0  0  0  0  0  0  0  0  0  0  0
  1  2  1  0  0  0  0
  1 22  1  0  0  0  0
  1 23  1  0  0  0  0
  2  3  2  0  0  0  0
  2  4  2  0  0  0  0
  2  5  1  0  0  0  0
  5  6  2  0  0  0  0
  5 18  1  0  0  0  0
  6  7  1  0  0  0  0
  6  8  1  0  0  0  0
  8  9  2  0  0  0  0
  8 24  1  0  0  0  0
  9 10  1  0  0  0  0
  9 17  1  0  0  0  0
 10 11  1  0  0  0  0
 10 25  1  0  0  0  0
 11 12  1  0  0  0  0
 11 26  1  0  0  0  0
 11 27  1  0  0  0  0
 12 13  2  0  0  0  0
 12 16  1  0  0  0  0
 13 14  1  0  0  0  0
 13 28  1  0  0  0  0
 14 15  2  0  0  0  0
 14 29  1  0  0  0  0
 15 16  1  0  0  0  0
 15 30  1  0  0  0  0
 17 18  2  0  0  0  0
 17 19  1  0  0  0  0
 18 31  1  0  0  0  0
 19 20  2  0  0  0  0
 19 21  1  0  0  0  0
M  END
$$$$
