GAC
 OpenBabel04041914483D

 90 93  0  0  1  0  0  0  0  0999 V2000
   33.1653   20.6623    8.2021 C   0  0  2  0  0  0  0  0  0  0  0  0
   34.3723   20.4613    9.1273 C   0  0  1  0  0  0  0  0  0  0  0  0
   34.0231   19.6246   10.3537 C   0  0  2  0  0  0  0  0  0  0  0  0
   32.8976   20.2859   11.1527 C   0  0  1  0  0  0  0  0  0  0  0  0
   31.6399   20.5350   10.2865 C   0  0  1  0  0  0  0  0  0  0  0  0
   30.6150   21.3520   11.0629 C   0  0  0  0  0  0  0  0  0  0  0  0
   31.9730   21.2360    8.9589 C   0  0  0  0  0  0  0  0  0  0  0  0
   35.3903   19.7497    8.3923 O   0  0  0  0  0  0  0  0  0  0  0  0
   35.2050   19.5229   11.1482 O   0  0  0  0  0  0  0  0  0  0  0  0
   32.5285   19.4046   12.2115 O   0  0  0  0  0  0  0  0  0  0  0  0
   31.1331   22.6531   11.3282 O   0  0  0  0  0  0  0  0  0  0  0  0
   31.7043   18.2300    3.5525 C   0  0  2  0  0  0  0  0  0  0  0  0
   33.1827   18.5947    3.7924 C   0  0  1  0  0  0  0  0  0  0  0  0
   33.5031   18.4627    5.2909 C   0  0  2  0  0  0  0  0  0  0  0  0
   32.5281   19.3766    6.0676 C   0  0  1  0  0  0  0  0  0  0  0  0
   31.0894   18.9193    5.7490 C   0  0  1  0  0  0  0  0  0  0  0  0
   30.0293   19.7515    6.4528 C   0  0  0  0  0  0  0  0  0  0  0  0
   32.8243   19.3253    7.5625 N   0  3  0  0  0  0  0  0  0  0  0  0
   34.0432   17.7318    3.0345 O   0  0  0  0  0  0  0  0  0  0  0  0
   34.8655   18.8636    5.5035 O   0  0  0  0  0  0  0  0  0  0  0  0
   30.8309   19.0245    4.3596 O   0  0  0  0  0  0  0  0  0  0  0  0
   30.6961   13.5974    1.4690 C   0  0  2  0  0  0  0  0  0  0  0  0
   30.3108   14.9320    0.8277 C   0  0  1  0  0  0  0  0  0  0  0  0
   30.9745   16.0938    1.5783 C   0  0  2  0  0  0  0  0  0  0  0  0
   30.7030   16.0363    3.0954 C   0  0  1  0  0  0  0  0  0  0  0  0
   30.9622   14.5996    3.6186 C   0  0  1  0  0  0  0  0  0  0  0  0
   30.5025   14.4705    5.0800 C   0  0  0  0  0  0  0  0  0  0  0  0
   30.7341   14.9373   -0.5423 O   0  0  0  0  0  0  0  0  0  0  0  0
   30.4820   17.3232    1.0132 O   0  0  0  0  0  0  0  0  0  0  0  0
   31.5673   16.8580    3.8909 O   0  0  0  0  0  0  0  0  0  0  0  0
   30.3033   13.5980    2.8334 O   0  0  0  0  0  0  0  0  0  0  0  0
   30.9485   13.2567    5.6839 O   0  0  0  0  0  0  0  0  0  0  0  0
   34.8519   10.4373    0.5621 C   0  0  1  0  0  0  0  0  0  0  0  0
   34.1518   10.9983   -0.6800 C   0  0  1  0  0  0  0  0  0  0  0  0
   33.4726   12.3252   -0.3192 C   0  0  2  0  0  0  0  0  0  0  0  0
   32.5406   12.1414    0.8923 C   0  0  1  0  0  0  0  0  0  0  0  0
   33.2950   11.4550    2.0456 C   0  0  1  0  0  0  0  0  0  0  0  0
   32.3724   11.0962    3.2220 C   0  0  0  0  0  0  0  0  0  0  0  0
   35.8710   11.3368    0.9884 O   0  0  0  0  0  0  0  0  0  0  0  0
   35.1017   11.1872   -1.7401 O   0  0  0  0  0  0  0  0  0  0  0  0
   32.7181   12.7595   -1.4549 O   0  0  0  0  0  0  0  0  0  0  0  0
   32.1117   13.4457    1.3149 O   0  0  0  0  0  0  0  0  0  0  0  0
   33.9371   10.2463    1.6268 O   0  0  0  0  0  0  0  0  0  0  0  0
   31.3201   10.2177    2.8448 O   0  0  0  0  0  0  0  0  0  0  0  0
   33.4622   21.3350    7.3915 H   0  0  0  0  0  0  0  0  0  0  0  0
   34.7795   21.4361    9.4263 H   0  0  0  0  0  0  0  0  0  0  0  0
   33.7338   18.6041   10.0734 H   0  0  0  0  0  0  0  0  0  0  0  0
   33.2877   21.2137   11.5927 H   0  0  0  0  0  0  0  0  0  0  0  0
   31.1863   19.5558   10.0750 H   0  0  0  0  0  0  0  0  0  0  0  0
   30.3191   20.8829   12.0256 H   0  0  0  0  0  0  0  0  0  0  0  0
   29.7035   21.4705   10.4767 H   0  0  0  0  0  0  0  0  0  0  0  0
   31.0817   21.2432    8.3310 H   0  0  0  0  0  0  0  0  0  0  0  0
   32.1847   22.2926    9.1453 H   0  0  0  0  0  0  0  0  0  0  0  0
   36.2196   19.9014    8.9020 H   0  0  0  0  0  0  0  0  0  0  0  0
   35.7964   18.8634   10.7440 H   0  0  0  0  0  0  0  0  0  0  0  0
   32.0366   19.9017   12.8899 H   0  0  0  0  0  0  0  0  0  0  0  0
   31.7810   22.6075   12.0435 H   0  0  0  0  0  0  0  0  0  0  0  0
   31.4839   18.4525    2.5137 H   0  0  0  0  0  0  0  0  0  0  0  0
   33.3730   19.6240    3.4624 H   0  0  0  0  0  0  0  0  0  0  0  0
   33.4152   17.4148    5.6090 H   0  0  0  0  0  0  0  0  0  0  0  0
   32.6752   20.3968    5.7364 H   0  0  0  0  0  0  0  0  0  0  0  0
   30.9465   17.8712    6.0700 H   0  0  0  0  0  0  0  0  0  0  0  0
   29.0221   19.4236    6.1452 H   0  0  0  0  0  0  0  0  0  0  0  0
   30.1131   20.8061    6.1894 H   0  0  0  0  0  0  0  0  0  0  0  0
   30.0808   19.6295    7.5379 H   0  0  0  0  0  0  0  0  0  0  0  0
   33.6837   18.7569    7.6768 H   0  0  0  0  0  0  0  0  0  0  0  0
   34.9556   17.9875    3.2357 H   0  0  0  0  0  0  0  0  0  0  0  0
   35.1886   18.6111    6.3881 H   0  0  0  0  0  0  0  0  0  0  0  0
   30.1517   12.7965    0.9585 H   0  0  0  0  0  0  0  0  0  0  0  0
   29.2205   15.0552    0.8426 H   0  0  0  0  0  0  0  0  0  0  0  0
   32.0546   16.1080    1.4004 H   0  0  0  0  0  0  0  0  0  0  0  0
   29.6642   16.3364    3.2879 H   0  0  0  0  0  0  0  0  0  0  0  0
   32.0397   14.3923    3.6042 H   0  0  0  0  0  0  0  0  0  0  0  0
   29.4110   14.4755    5.1395 H   0  0  0  0  0  0  0  0  0  0  0  0
   30.8895   15.2847    5.7002 H   0  0  0  0  0  0  0  0  0  0  0  0
   31.6790   15.1722   -0.5187 H   0  0  0  0  0  0  0  0  0  0  0  0
   29.5101   17.3316    1.0735 H   0  0  0  0  0  0  0  0  0  0  0  0
   31.9114   13.1851    5.5674 H   0  0  0  0  0  0  0  0  0  0  0  0
   35.3255    9.4812    0.3206 H   0  0  0  0  0  0  0  0  0  0  0  0
   33.3928   10.2957   -1.0429 H   0  0  0  0  0  0  0  0  0  0  0  0
   34.2185   13.1062   -0.1251 H   0  0  0  0  0  0  0  0  0  0  0  0
   31.6988   11.5295    0.5532 H   0  0  0  0  0  0  0  0  0  0  0  0
   34.0532   12.1387    2.4492 H   0  0  0  0  0  0  0  0  0  0  0  0
   31.9451   11.9891    3.6619 H   0  0  0  0  0  0  0  0  0  0  0  0
   32.9457   10.5934    4.0022 H   0  0  0  0  0  0  0  0  0  0  0  0
   36.3031   10.8693    1.7260 H   0  0  0  0  0  0  0  0  0  0  0  0
   35.7671   11.8140   -1.4048 H   0  0  0  0  0  0  0  0  0  0  0  0
   32.3203   13.6180   -1.2598 H   0  0  0  0  0  0  0  0  0  0  0  0
   30.7355   10.6729    2.2178 H   0  0  0  0  0  0  0  0  0  0  0  0
   32.0979   18.8160    8.0738 H   0  0  0  0  0  0  0  0  0  0  0  0
  1  2  1  0  0  0  0
  1  7  1  0  0  0  0
  1 18  1  0  0  0  0
  1 45  1  6  0  0  0
  2  3  1  0  0  0  0
  2  8  1  0  0  0  0
  2 46  1  1  0  0  0
  3  4  1  0  0  0  0
  3  9  1  0  0  0  0
  3 47  1  6  0  0  0
  4  5  1  0  0  0  0
  4 10  1  0  0  0  0
  4 48  1  1  0  0  0
  5  6  1  0  0  0  0
  5  7  1  0  0  0  0
  5 49  1  6  0  0  0
  6 11  1  0  0  0  0
  6 50  1  0  0  0  0
  6 51  1  0  0  0  0
  7 52  1  0  0  0  0
  7 53  1  0  0  0  0
  8 54  1  0  0  0  0
  9 55  1  0  0  0  0
 10 56  1  0  0  0  0
 11 57  1  0  0  0  0
 12 13  1  0  0  0  0
 12 21  1  0  0  0  0
 12 30  1  0  0  0  0
 12 58  1  6  0  0  0
 13 14  1  0  0  0  0
 13 19  1  0  0  0  0
 13 59  1  6  0  0  0
 14 15  1  0  0  0  0
 14 20  1  0  0  0  0
 14 60  1  1  0  0  0
 15 16  1  0  0  0  0
 15 18  1  0  0  0  0
 15 61  1  6  0  0  0
 16 17  1  0  0  0  0
 16 21  1  0  0  0  0
 16 62  1  1  0  0  0
 17 63  1  0  0  0  0
 17 64  1  0  0  0  0
 17 65  1  0  0  0  0
 18 66  1  0  0  0  0
 18 90  1  0  0  0  0
 19 67  1  0  0  0  0
 20 68  1  0  0  0  0
 22 23  1  0  0  0  0
 22 31  1  0  0  0  0
 22 42  1  0  0  0  0
 22 69  1  6  0  0  0
 23 24  1  0  0  0  0
 23 28  1  0  0  0  0
 23 70  1  1  0  0  0
 24 25  1  0  0  0  0
 24 29  1  0  0  0  0
 24 71  1  6  0  0  0
 25 26  1  0  0  0  0
 25 30  1  0  0  0  0
 25 72  1  1  0  0  0
 26 27  1  0  0  0  0
 26 31  1  0  0  0  0
 26 73  1  6  0  0  0
 27 32  1  0  0  0  0
 27 74  1  0  0  0  0
 27 75  1  0  0  0  0
 28 76  1  0  0  0  0
 29 77  1  0  0  0  0
 32 78  1  0  0  0  0
 33 34  1  0  0  0  0
 33 39  1  0  0  0  0
 33 43  1  0  0  0  0
 33 79  1  6  0  0  0
 34 35  1  0  0  0  0
 34 40  1  0  0  0  0
 34 80  1  6  0  0  0
 35 36  1  0  0  0  0
 35 41  1  0  0  0  0
 35 81  1  1  0  0  0
 36 37  1  0  0  0  0
 36 42  1  0  0  0  0
 36 82  1  6  0  0  0
 37 38  1  0  0  0  0
 37 43  1  0  0  0  0
 37 83  1  1  0  0  0
 38 44  1  0  0  0  0
 38 84  1  0  0  0  0
 38 85  1  0  0  0  0
 39 86  1  0  0  0  0
 40 87  1  0  0  0  0
 41 88  1  0  0  0  0
 44 89  1  0  0  0  0
M  CHG  1  18   1
M  END
$$$$
