GAN
 OpenBabel04041914553D

 95 96  0  0  1  0  0  0  0  0999 V2000
   -4.4147   16.7711   18.9204 N   0  3  0  0  0  0  0  0  0  0  0  0
   -4.3658   17.2255   20.3467 C   0  0  1  0  0  0  0  0  0  0  0  0
   -3.3697   18.3584   20.4705 C   0  0  0  0  0  0  0  0  0  0  0  0
   -5.7565   17.7434   20.7276 C   0  0  0  0  0  0  0  0  0  0  0  0
   -6.2894   18.5868   20.0418 O   0  0  0  0  0  0  0  0  0  0  0  0
   -6.3499   17.1502   21.7941 N   0  0  0  0  0  0  0  0  0  0  0  0
   -7.6746   17.5543   22.2290 C   0  0  1  0  0  0  0  0  0  0  0  0
   -8.7049   16.7266   21.4734 C   0  0  0  0  0  0  0  0  0  0  0  0
   -7.6727   17.3583   23.7444 C   0  0  0  0  0  0  0  0  0  0  0  0
   -7.0925   18.2615   24.5427 C   0  0  0  0  0  0  0  0  0  0  0  0
   -6.9993   18.1500   26.0735 C   0  0  1  0  0  0  0  0  0  0  0  0
   -5.8844   19.0143   26.6413 C   0  0  0  0  0  0  0  0  0  0  0  0
   -4.6070   18.4527   26.0733 C   0  0  0  0  0  0  0  0  0  0  0  0
   -3.8298   19.2376   25.2225 C   0  0  0  0  0  0  0  0  0  0  0  0
   -2.7225   18.6882   24.5842 C   0  0  0  0  0  0  0  0  0  0  0  0
   -2.4002   17.3480   24.7848 C   0  0  0  0  0  0  0  0  0  0  0  0
   -3.1754   16.5591   25.6305 C   0  0  0  0  0  0  0  0  0  0  0  0
   -4.2708   17.1072   26.2839 C   0  0  0  0  0  0  0  0  0  0  0  0
   -8.3246   18.4372   26.7754 C   0  0  0  0  0  0  0  0  0  0  0  0
   -8.3074   16.0870   24.2908 C   0  0  0  0  0  0  0  0  0  0  0  0
   -8.8128   16.1082   25.7521 C   0  0  0  0  0  0  0  0  0  0  0  0
   -9.3325   17.4697   26.1788 N   0  3  1  0  0  0  0  0  0  0  0  0
  -10.7758   17.5515   26.6497 C   0  0  1  0  0  0  0  0  0  0  0  0
  -11.5465   16.7993   25.5754 C   0  0  0  0  0  0  0  0  0  0  0  0
  -11.1651   17.1613   28.1023 C   0  0  0  0  0  0  0  0  0  0  0  0
  -10.8689   17.8597   29.0403 O   0  0  0  0  0  0  0  0  0  0  0  0
  -11.8981   16.0035   28.2325 N   0  0  0  0  0  0  0  0  0  0  0  0
  -12.4462   15.5032   29.5014 C   0  0  1  0  0  0  0  0  0  0  0  0
  -13.4319   14.3331   29.2490 C   0  0  0  0  0  0  0  0  0  0  0  0
  -14.3090   14.1521   30.4691 C   0  0  0  0  0  0  0  0  0  0  0  0
  -12.7854   12.9809   28.9557 C   0  0  0  0  0  0  0  0  0  0  0  0
  -11.2660   15.0571   30.4178 C   0  0  0  0  0  0  0  0  0  0  0  0
  -10.3543   14.3958   30.0258 O   0  0  0  0  0  0  0  0  0  0  0  0
  -11.3955   15.4678   31.7161 N   0  0  0  0  0  0  0  0  0  0  0  0
  -10.4791   15.0936   32.7962 C   0  0  1  0  0  0  0  0  0  0  0  0
   -9.2524   16.0124   33.0278 C   0  0  0  0  0  0  0  0  0  0  0  0
   -8.8302   16.9502   31.9065 C   0  0  0  0  0  0  0  0  0  0  0  0
   -8.0687   15.0661   33.1960 C   0  0  0  0  0  0  0  0  0  0  0  0
  -11.4560   15.2473   33.9685 C   0  0  0  0  0  0  0  0  0  0  0  0
  -12.0025   16.3201   34.1622 O   0  0  0  0  0  0  0  0  0  0  0  0
  -11.8606   14.1300   34.6130 O   0  0  0  0  0  0  0  0  0  0  0  0
  -12.4359   13.1093   33.7993 C   0  0  0  0  0  0  0  0  0  0  0  0
   -5.0953   16.0102   18.7973 H   0  0  0  0  0  0  0  0  0  0  0  0
   -4.7257   17.5473   18.3136 H   0  0  0  0  0  0  0  0  0  0  0  0
   -4.0646   16.3712   20.9565 H   0  0  0  0  0  0  0  0  0  0  0  0
   -3.3208   18.6962   21.5112 H   0  0  0  0  0  0  0  0  0  0  0  0
   -3.6659   19.2159   19.8528 H   0  0  0  0  0  0  0  0  0  0  0  0
   -2.3685   18.0389   20.1630 H   0  0  0  0  0  0  0  0  0  0  0  0
   -5.8773   16.4242   22.3108 H   0  0  0  0  0  0  0  0  0  0  0  0
   -7.8527   18.6156   21.9946 H   0  0  0  0  0  0  0  0  0  0  0  0
   -9.7203   17.0011   21.7754 H   0  0  0  0  0  0  0  0  0  0  0  0
   -8.5481   15.6591   21.6722 H   0  0  0  0  0  0  0  0  0  0  0  0
   -8.6053   16.8733   20.3917 H   0  0  0  0  0  0  0  0  0  0  0  0
   -6.5794   19.1229   24.0922 H   0  0  0  0  0  0  0  0  0  0  0  0
   -6.7418   17.1161   26.3191 H   0  0  0  0  0  0  0  0  0  0  0  0
   -5.8666   18.9782   27.7384 H   0  0  0  0  0  0  0  0  0  0  0  0
   -6.0320   20.0577   26.3383 H   0  0  0  0  0  0  0  0  0  0  0  0
   -4.0886   20.2784   25.0541 H   0  0  0  0  0  0  0  0  0  0  0  0
   -2.1052   19.3060   23.9368 H   0  0  0  0  0  0  0  0  0  0  0  0
   -1.5306   16.9205   24.2936 H   0  0  0  0  0  0  0  0  0  0  0  0
   -2.9128   15.5173   25.7928 H   0  0  0  0  0  0  0  0  0  0  0  0
   -4.8713   16.4752   26.9379 H   0  0  0  0  0  0  0  0  0  0  0  0
   -8.6639   19.4560   26.5464 H   0  0  0  0  0  0  0  0  0  0  0  0
   -8.2669   18.2985   27.8600 H   0  0  0  0  0  0  0  0  0  0  0  0
   -7.5599   15.2860   24.2181 H   0  0  0  0  0  0  0  0  0  0  0  0
   -9.1515   15.7922   23.6575 H   0  0  0  0  0  0  0  0  0  0  0  0
   -8.0433   15.7826   26.4371 H   0  0  0  0  0  0  0  0  0  0  0  0
   -9.6008   15.3787   25.8508 H   0  0  0  0  0  0  0  0  0  0  0  0
  -11.0204   18.6143   26.5666 H   0  0  0  0  0  0  0  0  0  0  0  0
  -12.6026   16.7814   25.7983 H   0  0  0  0  0  0  0  0  0  0  0  0
  -11.2527   15.7485   25.5126 H   0  0  0  0  0  0  0  0  0  0  0  0
  -11.3714   17.2392   24.5917 H   0  0  0  0  0  0  0  0  0  0  0  0
  -12.1370   15.4583   27.4228 H   0  0  0  0  0  0  0  0  0  0  0  0
  -12.9747   16.3314   29.9928 H   0  0  0  0  0  0  0  0  0  0  0  0
  -14.0793   14.5732   28.3934 H   0  0  0  0  0  0  0  0  0  0  0  0
  -15.0165   13.3286   30.3257 H   0  0  0  0  0  0  0  0  0  0  0  0
  -14.8580   15.0731   30.6627 H   0  0  0  0  0  0  0  0  0  0  0  0
  -13.6806   13.9226   31.3269 H   0  0  0  0  0  0  0  0  0  0  0  0
  -12.1582   13.0463   28.0657 H   0  0  0  0  0  0  0  0  0  0  0  0
  -13.5542   12.2110   28.7878 H   0  0  0  0  0  0  0  0  0  0  0  0
  -12.1774   12.6564   29.8071 H   0  0  0  0  0  0  0  0  0  0  0  0
  -12.1915   16.0358   31.9798 H   0  0  0  0  0  0  0  0  0  0  0  0
  -10.1316   14.0698   32.6313 H   0  0  0  0  0  0  0  0  0  0  0  0
   -9.3924   16.6131   33.9386 H   0  0  0  0  0  0  0  0  0  0  0  0
   -7.9579   17.5466   32.2255 H   0  0  0  0  0  0  0  0  0  0  0  0
   -9.6391   17.6288   31.6459 H   0  0  0  0  0  0  0  0  0  0  0  0
   -8.5329   16.3701   31.0288 H   0  0  0  0  0  0  0  0  0  0  0  0
   -8.2826   14.3478   33.9876 H   0  0  0  0  0  0  0  0  0  0  0  0
   -7.1559   15.6191   33.4311 H   0  0  0  0  0  0  0  0  0  0  0  0
   -7.9177   14.5221   32.2537 H   0  0  0  0  0  0  0  0  0  0  0  0
  -12.8120   12.3043   34.4383 H   0  0  0  0  0  0  0  0  0  0  0  0
  -11.6841   12.7009   33.1276 H   0  0  0  0  0  0  0  0  0  0  0  0
  -13.2803   13.4985   33.2256 H   0  0  0  0  0  0  0  0  0  0  0  0
   -3.4975   16.4492   18.5908 H   0  0  0  0  0  0  0  0  0  0  0  0
   -9.4418   17.9240   25.2745 H   0  0  0  0  0  0  0  0  0  0  0  0
  1  2  1  0  0  0  0
  1 43  1  0  0  0  0
  1 44  1  0  0  0  0
  1 94  1  0  0  0  0
  2  3  1  0  0  0  0
  2  4  1  0  0  0  0
  2 45  1  1  0  0  0
  3 46  1  0  0  0  0
  3 47  1  0  0  0  0
  3 48  1  0  0  0  0
  4  5  2  0  0  0  0
  4  6  1  0  0  0  0
  6  7  1  0  0  0  0
  6 49  1  0  0  0  0
  7  8  1  0  0  0  0
  7  9  1  0  0  0  0
  7 50  1  6  0  0  0
  8 51  1  0  0  0  0
  8 52  1  0  0  0  0
  8 53  1  0  0  0  0
  9 10  2  0  0  0  0
  9 20  1  0  0  0  0
 10 11  1  0  0  0  0
 10 54  1  0  0  0  0
 11 12  1  0  0  0  0
 11 19  1  0  0  0  0
 11 55  1  1  0  0  0
 12 13  1  0  0  0  0
 12 56  1  0  0  0  0
 12 57  1  0  0  0  0
 13 14  2  0  0  0  0
 13 18  1  0  0  0  0
 14 15  1  0  0  0  0
 14 58  1  0  0  0  0
 15 16  2  0  0  0  0
 15 59  1  0  0  0  0
 16 17  1  0  0  0  0
 16 60  1  0  0  0  0
 17 18  2  0  0  0  0
 17 61  1  0  0  0  0
 18 62  1  0  0  0  0
 19 22  1  0  0  0  0
 19 63  1  0  0  0  0
 19 64  1  0  0  0  0
 20 21  1  0  0  0  0
 20 65  1  0  0  0  0
 20 66  1  0  0  0  0
 21 22  1  0  0  0  0
 21 67  1  0  0  0  0
 21 68  1  0  0  0  0
 22 23  1  0  0  0  0
 22 95  1  6  0  0  0
 23 24  1  0  0  0  0
 23 25  1  0  0  0  0
 23 69  1  6  0  0  0
 24 70  1  0  0  0  0
 24 71  1  0  0  0  0
 24 72  1  0  0  0  0
 25 26  2  0  0  0  0
 25 27  1  0  0  0  0
 27 28  1  0  0  0  0
 27 73  1  0  0  0  0
 28 29  1  0  0  0  0
 28 32  1  0  0  0  0
 28 74  1  1  0  0  0
 29 30  1  0  0  0  0
 29 31  1  0  0  0  0
 29 75  1  0  0  0  0
 30 76  1  0  0  0  0
 30 77  1  0  0  0  0
 30 78  1  0  0  0  0
 31 79  1  0  0  0  0
 31 80  1  0  0  0  0
 31 81  1  0  0  0  0
 32 33  2  0  0  0  0
 32 34  1  0  0  0  0
 34 35  1  0  0  0  0
 34 82  1  0  0  0  0
 35 36  1  0  0  0  0
 35 39  1  0  0  0  0
 35 83  1  6  0  0  0
 36 37  1  0  0  0  0
 36 38  1  0  0  0  0
 36 84  1  0  0  0  0
 37 85  1  0  0  0  0
 37 86  1  0  0  0  0
 37 87  1  0  0  0  0
 38 88  1  0  0  0  0
 38 89  1  0  0  0  0
 38 90  1  0  0  0  0
 39 40  2  0  0  0  0
 39 41  1  0  0  0  0
 41 42  1  0  0  0  0
 42 91  1  0  0  0  0
 42 92  1  0  0  0  0
 42 93  1  0  0  0  0
M  CHG  2   1   1  22   1
M  END
$$$$
