GDP
 OpenBabel04041914153D

 40 42  0  0  1  0  0  0  0  0999 V2000
   15.0243   -9.2572   51.5923 P   0  0  0  0  0  0  0  0  0  0  0  0
   13.9269   -8.2042   51.4225 O   0  0  0  0  0  0  0  0  0  0  0  0
   16.4390   -8.7498   51.3761 O   0  0  0  0  0  0  0  0  0  0  0  0
   14.8751  -10.0154   52.9197 O   0  0  0  0  0  0  0  0  0  0  0  0
   14.6814  -10.3433   50.4335 O   0  0  0  0  0  0  0  0  0  0  0  0
   15.7124  -11.0235   49.4344 P   0  0  2  0  0  0  0  0  0  0  0  0
   16.7396  -11.8904   50.1611 O   0  0  0  0  0  0  0  0  0  0  0  0
   16.1598  -10.1265   48.2932 O   0  0  0  0  0  0  0  0  0  0  0  0
   14.6701  -12.0890   48.6882 O   0  0  0  0  0  0  0  0  0  0  0  0
   14.0458  -13.0879   49.4760 C   0  0  0  0  0  0  0  0  0  0  0  0
   13.6607  -14.2670   48.5884 C   0  0  1  0  0  0  0  0  0  0  0  0
   12.7318  -13.8230   47.5429 O   0  0  0  0  0  0  0  0  0  0  0  0
   14.8359  -14.9235   47.8738 C   0  0  1  0  0  0  0  0  0  0  0  0
   14.5480  -16.3511   47.8012 O   0  0  0  0  0  0  0  0  0  0  0  0
   14.8145  -14.2525   46.4976 C   0  0  1  0  0  0  0  0  0  0  0  0
   15.4472  -15.0014   45.4596 O   0  0  0  0  0  0  0  0  0  0  0  0
   13.3301  -14.0494   46.2461 C   0  0  2  0  0  0  0  0  0  0  0  0
   13.0242  -12.9567   45.3195 N   0  3  0  0  0  0  0  0  0  0  0  0
   13.5198  -11.6685   45.3084 C   0  0  0  0  0  0  0  0  0  0  0  0
   13.0655  -10.9473   44.2928 N   0  0  0  0  0  0  0  0  0  0  0  0
   12.2320  -11.8062   43.6254 C   0  0  0  0  0  0  0  0  0  0  0  0
   11.4372  -11.5869   42.4272 C   0  0  0  0  0  0  0  0  0  0  0  0
   11.3473  -10.5840   41.7540 O   0  0  0  0  0  0  0  0  0  0  0  0
   10.7329  -12.7532   42.0910 N   0  3  0  0  0  0  0  0  0  0  0  0
   10.7760  -13.9477   42.7899 C   0  0  0  0  0  0  0  0  0  0  0  0
   10.0020  -14.9546   42.2789 N   0  0  0  0  0  0  0  0  0  0  0  0
   11.4857  -14.1425   43.8433 N   0  0  0  0  0  0  0  0  0  0  0  0
   12.1984  -13.0416   44.2314 C   0  0  0  0  0  0  0  0  0  0  0  0
   13.1321  -12.6956   49.9298 H   0  0  0  0  0  0  0  0  0  0  0  0
   14.7269  -13.4343   50.2520 H   0  0  0  0  0  0  0  0  0  0  0  0
   13.1369  -15.0241   49.1963 H   0  0  0  0  0  0  0  0  0  0  0  0
   15.7969  -14.7972   48.3842 H   0  0  0  0  0  0  0  0  0  0  0  0
   13.6904  -16.4562   47.3605 H   0  0  0  0  0  0  0  0  0  0  0  0
   15.2948  -13.2763   46.5614 H   0  0  0  0  0  0  0  0  0  0  0  0
   15.0016  -15.8572   45.3840 H   0  0  0  0  0  0  0  0  0  0  0  0
   12.8843  -14.9873   45.8503 H   0  0  0  0  0  0  0  0  0  0  0  0
   14.2198  -11.2919   46.0583 H   0  0  0  0  0  0  0  0  0  0  0  0
   10.1617  -12.6683   41.2734 H   0  0  0  0  0  0  0  0  0  0  0  0
   10.0089  -15.8372   42.7682 H   0  0  0  0  0  0  0  0  0  0  0  0
    9.4412  -14.8292   41.4620 H   0  0  0  0  0  0  0  0  0  0  0  0
  1  2  2  0  0  0  0
  1  3  1  0  0  0  0
  1  4  1  0  0  0  0
  1  5  1  0  0  0  0
  6  5  1  1  0  0  0
  6  7  2  0  0  0  0
  6  8  1  0  0  0  0
  6  9  1  0  0  0  0
  9 10  1  0  0  0  0
 10 11  1  0  0  0  0
 10 29  1  0  0  0  0
 10 30  1  0  0  0  0
 11 12  1  0  0  0  0
 11 13  1  0  0  0  0
 11 31  1  1  0  0  0
 12 17  1  0  0  0  0
 13 14  1  0  0  0  0
 13 15  1  0  0  0  0
 13 32  1  1  0  0  0
 14 33  1  0  0  0  0
 15 16  1  0  0  0  0
 15 17  1  0  0  0  0
 15 34  1  1  0  0  0
 16 35  1  0  0  0  0
 17 18  1  0  0  0  0
 17 36  1  6  0  0  0
 18 19  2  0  0  0  0
 18 28  1  0  0  0  0
 19 20  1  0  0  0  0
 19 37  1  0  0  0  0
 20 21  1  0  0  0  0
 21 22  1  0  0  0  0
 21 28  2  0  0  0  0
 22 23  2  0  0  0  0
 22 24  1  0  0  0  0
 24 25  1  0  0  0  0
 24 38  1  0  0  0  0
 25 26  1  0  0  0  0
 25 27  2  0  0  0  0
 26 39  1  0  0  0  0
 26 40  1  0  0  0  0
 27 28  1  0  0  0  0
M  CHG  2  18   1  24   1
M  END
$$$$
