GDP
 OpenBabel04041917013D

 40 42  0  0  1  0  0  0  0  0999 V2000
    9.6323   25.2020   36.7922 P   0  0  0  0  0  0  0  0  0  0  0  0
    8.8581   26.0895   37.7634 O   0  0  0  0  0  0  0  0  0  0  0  0
    8.8740   23.9044   36.4847 O   0  0  0  0  0  0  0  0  0  0  0  0
   10.1055   25.8966   35.5202 O   0  0  0  0  0  0  0  0  0  0  0  0
   10.9321   24.7193   37.6324 O   0  0  0  0  0  0  0  0  0  0  0  0
   12.2529   25.4847   38.1124 P   0  0  1  0  0  0  0  0  0  0  0  0
   13.4750   25.0282   37.3244 O   0  0  0  0  0  0  0  0  0  0  0  0
   12.1249   26.9568   38.4509 O   0  0  0  0  0  0  0  0  0  0  0  0
   12.5435   24.7379   39.5556 O   0  0  0  0  0  0  0  0  0  0  0  0
   11.8187   24.9691   40.7441 C   0  0  0  0  0  0  0  0  0  0  0  0
   12.8034   25.0647   41.9424 C   0  0  1  0  0  0  0  0  0  0  0  0
   13.4140   23.7741   42.2692 O   0  0  0  0  0  0  0  0  0  0  0  0
   13.9646   26.0413   41.7634 C   0  0  1  0  0  0  0  0  0  0  0  0
   14.2286   26.6198   43.0710 O   0  0  0  0  0  0  0  0  0  0  0  0
   15.1347   25.1684   41.2991 C   0  0  1  0  0  0  0  0  0  0  0  0
   16.4091   25.7136   41.7125 O   0  0  0  0  0  0  0  0  0  0  0  0
   14.8296   23.8159   41.9519 C   0  0  2  0  0  0  0  0  0  0  0  0
   15.1961   22.6231   41.2024 N   0  3  0  0  0  0  0  0  0  0  0  0
   14.8490   22.2862   39.9118 C   0  0  0  0  0  0  0  0  0  0  0  0
   15.3482   21.1130   39.5440 N   0  0  0  0  0  0  0  0  0  0  0  0
   16.0221   20.6644   40.6308 C   0  0  0  0  0  0  0  0  0  0  0  0
   16.7668   19.4544   40.8617 C   0  0  0  0  0  0  0  0  0  0  0  0
   16.9283   18.5210   40.0630 O   0  0  0  0  0  0  0  0  0  0  0  0
   17.3029   19.3750   42.1349 N   0  3  0  0  0  0  0  0  0  0  0  0
   17.1759   20.3457   43.0872 C   0  0  0  0  0  0  0  0  0  0  0  0
   17.8086   20.1372   44.2666 N   0  0  0  0  0  0  0  0  0  0  0  0
   16.5217   21.4817   42.9159 N   0  0  0  0  0  0  0  0  0  0  0  0
   15.9524   21.5786   41.6755 C   0  0  0  0  0  0  0  0  0  0  0  0
   11.1567   24.1104   40.9175 H   0  0  0  0  0  0  0  0  0  0  0  0
   11.1949   25.8700   40.7020 H   0  0  0  0  0  0  0  0  0  0  0  0
   12.2166   25.3426   42.8290 H   0  0  0  0  0  0  0  0  0  0  0  0
   13.7585   26.8619   41.0717 H   0  0  0  0  0  0  0  0  0  0  0  0
   14.9622   27.2448   42.9652 H   0  0  0  0  0  0  0  0  0  0  0  0
   15.1510   25.0718   40.2108 H   0  0  0  0  0  0  0  0  0  0  0  0
   16.5361   26.5220   41.1852 H   0  0  0  0  0  0  0  0  0  0  0  0
   15.3911   23.7630   42.8998 H   0  0  0  0  0  0  0  0  0  0  0  0
   14.2327   22.9245   39.2723 H   0  0  0  0  0  0  0  0  0  0  0  0
   17.7890   18.5254   42.3217 H   0  0  0  0  0  0  0  0  0  0  0  0
   17.7150   20.8378   44.9969 H   0  0  0  0  0  0  0  0  0  0  0  0
   18.3056   19.2850   44.4769 H   0  0  0  0  0  0  0  0  0  0  0  0
  1  2  2  0  0  0  0
  1  3  1  0  0  0  0
  1  4  1  0  0  0  0
  1  5  1  0  0  0  0
  6  5  1  6  0  0  0
  6  7  2  0  0  0  0
  6  8  1  0  0  0  0
  6  9  1  0  0  0  0
  9 10  1  0  0  0  0
 10 11  1  0  0  0  0
 10 29  1  0  0  0  0
 10 30  1  0  0  0  0
 11 12  1  0  0  0  0
 11 13  1  0  0  0  0
 11 31  1  1  0  0  0
 12 17  1  0  0  0  0
 13 14  1  0  0  0  0
 13 15  1  0  0  0  0
 13 32  1  6  0  0  0
 14 33  1  0  0  0  0
 15 16  1  0  0  0  0
 15 17  1  0  0  0  0
 15 34  1  6  0  0  0
 16 35  1  0  0  0  0
 17 18  1  0  0  0  0
 17 36  1  1  0  0  0
 18 19  2  0  0  0  0
 18 28  1  0  0  0  0
 19 20  1  0  0  0  0
 19 37  1  0  0  0  0
 20 21  1  0  0  0  0
 21 22  1  0  0  0  0
 21 28  2  0  0  0  0
 22 23  2  0  0  0  0
 22 24  1  0  0  0  0
 24 25  1  0  0  0  0
 24 38  1  0  0  0  0
 25 26  1  0  0  0  0
 25 27  2  0  0  0  0
 26 39  1  0  0  0  0
 26 40  1  0  0  0  0
 27 28  1  0  0  0  0
M  CHG  2  18   1  24   1
M  END
$$$$
