GLN
 OpenBabel04041917293D

 20 19  0  0  1  0  0  0  0  0999 V2000
    1.8561   11.6742   14.3152 N   0  3  0  0  0  0  0  0  0  0  0  0
    0.6854   11.6879   15.2544 C   0  0  2  0  0  0  0  0  0  0  0  0
   -0.6876   11.6676   14.5189 C   0  0  0  0  0  0  0  0  0  0  0  0
   -1.6021   11.0800   15.1324 O   0  0  0  0  0  0  0  0  0  0  0  0
    0.7760   12.9472   16.1093 C   0  0  0  0  0  0  0  0  0  0  0  0
    1.9896   12.9476   17.0356 C   0  0  0  0  0  0  0  0  0  0  0  0
    1.8276   13.9227   18.1860 C   0  0  0  0  0  0  0  0  0  0  0  0
    1.9221   13.6168   19.3468 O   0  0  0  0  0  0  0  0  0  0  0  0
    1.6155   15.2062   17.7867 N   0  0  0  0  0  0  0  0  0  0  0  0
   -0.6701   12.1937   13.3672 O   0  0  0  0  0  0  0  0  0  0  0  0
    2.7384   11.6938   14.8155 H   0  0  0  0  0  0  0  0  0  0  0  0
    1.7893   10.8345   13.7297 H   0  0  0  0  0  0  0  0  0  0  0  0
    0.7847   10.8019   15.8947 H   0  0  0  0  0  0  0  0  0  0  0  0
   -0.1308   13.0247   16.7180 H   0  0  0  0  0  0  0  0  0  0  0  0
    0.8332   13.8268   15.4543 H   0  0  0  0  0  0  0  0  0  0  0  0
    2.8851   13.2248   16.4673 H   0  0  0  0  0  0  0  0  0  0  0  0
    2.1237   11.9587   17.4691 H   0  0  0  0  0  0  0  0  0  0  0  0
    1.4937   15.9178   18.4956 H   0  0  0  0  0  0  0  0  0  0  0  0
    1.5677   15.4486   16.8116 H   0  0  0  0  0  0  0  0  0  0  0  0
    1.7655   12.4829   13.6845 H   0  0  0  0  0  0  0  0  0  0  0  0
  1  2  1  0  0  0  0
  1 11  1  0  0  0  0
  1 12  1  0  0  0  0
  1 20  1  0  0  0  0
  2  3  1  0  0  0  0
  2  5  1  0  0  0  0
  2 13  1  1  0  0  0
  3  4  2  0  0  0  0
  3 10  1  0  0  0  0
  5  6  1  0  0  0  0
  5 14  1  0  0  0  0
  5 15  1  0  0  0  0
  6  7  1  0  0  0  0
  6 16  1  0  0  0  0
  6 17  1  0  0  0  0
  7  8  2  0  0  0  0
  7  9  1  0  0  0  0
  9 18  1  0  0  0  0
  9 19  1  0  0  0  0
M  CHG  1   1   1
M  END
$$$$
