GLU
 OpenBabel04041915053D

 18 17  0  0  1  0  0  0  0  0999 V2000
   88.2262   -7.6918   -9.9946 N   0  3  0  0  0  0  0  0  0  0  0  0
   87.7219   -7.2704  -11.3629 C   0  0  2  0  0  0  0  0  0  0  0  0
   88.4826   -5.9910  -11.8297 C   0  0  0  0  0  0  0  0  0  0  0  0
   89.0271   -5.4010  -10.8401 O   0  0  0  0  0  0  0  0  0  0  0  0
   86.2266   -6.9920  -11.2757 C   0  0  0  0  0  0  0  0  0  0  0  0
   85.4256   -8.1851  -10.7546 C   0  0  0  0  0  0  0  0  0  0  0  0
   83.9170   -7.9455  -10.7069 C   0  0  0  0  0  0  0  0  0  0  0  0
   83.4552   -7.1186  -11.5301 O   0  0  0  0  0  0  0  0  0  0  0  0
   83.3299   -8.6330   -9.8215 O   0  0  0  0  0  0  0  0  0  0  0  0
   88.6031   -5.8184  -13.0647 O   0  0  0  0  0  0  0  0  0  0  0  0
   89.2444   -7.7770  -10.0625 H   0  0  0  0  0  0  0  0  0  0  0  0
   88.0924   -6.8554   -9.4058 H   0  0  0  0  0  0  0  0  0  0  0  0
   87.9442   -8.1076  -12.0324 H   0  0  0  0  0  0  0  0  0  0  0  0
   85.8675   -6.7123  -12.2737 H   0  0  0  0  0  0  0  0  0  0  0  0
   86.0388   -6.1220  -10.6326 H   0  0  0  0  0  0  0  0  0  0  0  0
   85.7398   -8.4395   -9.7361 H   0  0  0  0  0  0  0  0  0  0  0  0
   85.6055   -9.0631  -11.3850 H   0  0  0  0  0  0  0  0  0  0  0  0
   87.7750   -8.5186   -9.6095 H   0  0  0  0  0  0  0  0  0  0  0  0
  1  2  1  0  0  0  0
  1 11  1  0  0  0  0
  1 12  1  0  0  0  0
  1 18  1  0  0  0  0
  2  5  1  0  0  0  0
  2  3  1  0  0  0  0
  2 13  1  6  0  0  0
  3  4  2  0  0  0  0
  3 10  1  0  0  0  0
  5  6  1  0  0  0  0
  5 14  1  0  0  0  0
  5 15  1  0  0  0  0
  6  7  1  0  0  0  0
  6 16  1  0  0  0  0
  6 17  1  0  0  0  0
  7  9  2  0  0  0  0
  7  8  1  0  0  0  0
M  CHG  1   1   1
M  END
$$$$
