GMP
 OpenBabel04041916103D

 33 35  0  0  1  0  0  0  0  0999 V2000
   -1.0041  -80.6359 -147.7956 O   0  0  0  0  0  0  0  0  0  0  0  0
    0.2821  -81.1762 -147.4990 C   0  0  0  0  0  0  0  0  0  0  0  0
    1.3462  -80.1760 -147.9611 C   0  0  1  0  0  0  0  0  0  0  0  0
    1.2337  -78.9558 -147.1994 O   0  0  0  0  0  0  0  0  0  0  0  0
    2.7753  -80.6786 -147.7800 C   0  0  1  0  0  0  0  0  0  0  0  0
    3.5069  -80.3773 -148.9752 O   0  0  0  0  0  0  0  0  0  0  0  0
    3.3084  -79.9454 -146.5462 C   0  0  1  0  0  0  0  0  0  0  0  0
    4.5187  -79.2246 -146.8270 O   0  0  0  0  0  0  0  0  0  0  0  0
    2.1621  -79.0204 -146.1015 C   0  0  2  0  0  0  0  0  0  0  0  0
    1.4042  -79.3799 -144.9052 N   0  3  0  0  0  0  0  0  0  0  0  0
    0.4078  -78.5938 -144.3722 C   0  0  0  0  0  0  0  0  0  0  0  0
   -0.1113  -79.1058 -143.2709 N   0  0  0  0  0  0  0  0  0  0  0  0
    0.5649  -80.2843 -143.1019 C   0  0  0  0  0  0  0  0  0  0  0  0
    0.4290  -81.2909 -142.0690 C   0  0  0  0  0  0  0  0  0  0  0  0
   -0.3550  -81.2690 -141.1308 O   0  0  0  0  0  0  0  0  0  0  0  0
    1.3162  -82.3449 -142.2487 N   0  3  0  0  0  0  0  0  0  0  0  0
    2.2015  -82.4525 -143.2975 C   0  0  0  0  0  0  0  0  0  0  0  0
    2.9639  -83.5672 -143.3138 N   0  0  0  0  0  0  0  0  0  0  0  0
    2.3167  -81.5566 -144.2393 N   0  0  0  0  0  0  0  0  0  0  0  0
    1.4951  -80.4870 -144.0955 C   0  0  0  0  0  0  0  0  0  0  0  0
   -1.6719  -81.2225 -147.4062 H   0  0  0  0  0  0  0  0  0  0  0  0
    0.3797  -82.1273 -148.0303 H   0  0  0  0  0  0  0  0  0  0  0  0
    0.3294  -81.3690 -146.4263 H   0  0  0  0  0  0  0  0  0  0  0  0
    1.1410  -79.9228 -149.0078 H   0  0  0  0  0  0  0  0  0  0  0  0
    2.8181  -81.7645 -147.6489 H   0  0  0  0  0  0  0  0  0  0  0  0
    4.4441  -80.5806 -148.8379 H   0  0  0  0  0  0  0  0  0  0  0  0
    3.6021  -80.6491 -145.7759 H   0  0  0  0  0  0  0  0  0  0  0  0
    5.2210  -79.8855 -146.9508 H   0  0  0  0  0  0  0  0  0  0  0  0
    2.5275  -77.9998 -145.9229 H   0  0  0  0  0  0  0  0  0  0  0  0
    0.0896  -77.6609 -144.8315 H   0  0  0  0  0  0  0  0  0  0  0  0
    1.2548  -83.0706 -141.5564 H   0  0  0  0  0  0  0  0  0  0  0  0
    3.7097  -83.6314 -143.9957 H   0  0  0  0  0  0  0  0  0  0  0  0
    2.9633  -84.2395 -142.5608 H   0  0  0  0  0  0  0  0  0  0  0  0
  1  2  1  0  0  0  0
  1 21  1  0  0  0  0
  2  3  1  0  0  0  0
  2 22  1  0  0  0  0
  2 23  1  0  0  0  0
  3  4  1  0  0  0  0
  3  5  1  0  0  0  0
  3 24  1  6  0  0  0
  4  9  1  0  0  0  0
  5  6  1  0  0  0  0
  5  7  1  0  0  0  0
  5 25  1  1  0  0  0
  6 26  1  0  0  0  0
  7  8  1  0  0  0  0
  7  9  1  0  0  0  0
  7 27  1  1  0  0  0
  8 28  1  0  0  0  0
  9 10  1  0  0  0  0
  9 29  1  1  0  0  0
 10 11  2  0  0  0  0
 10 20  1  0  0  0  0
 11 12  1  0  0  0  0
 11 30  1  0  0  0  0
 12 13  1  0  0  0  0
 13 14  1  0  0  0  0
 13 20  2  0  0  0  0
 14 15  2  0  0  0  0
 14 16  1  0  0  0  0
 16 17  1  0  0  0  0
 16 31  1  0  0  0  0
 17 18  1  0  0  0  0
 17 19  2  0  0  0  0
 18 32  1  0  0  0  0
 18 33  1  0  0  0  0
 19 20  1  0  0  0  0
M  CHG  2  10   1  16   1
M  END
$$$$
