GNH
 OpenBabel04041913523D

 42 44  0  0  1  0  0  0  0  0999 V2000
  102.5165   24.8685   -3.2271 N   0  0  0  0  0  0  0  0  0  0  0  0
  101.4421   25.9763   -2.3563 P   0  0  2  0  0  0  0  0  0  0  0  0
  101.0997   25.1813   -1.1335 O   0  0  0  0  0  0  0  0  0  0  0  0
  100.4184   26.2886   -3.4182 O   0  0  0  0  0  0  0  0  0  0  0  0
  102.4316   27.2031   -2.1358 O   0  0  0  0  0  0  0  0  0  0  0  0
  103.0057   27.8430   -0.7883 P   0  0  2  0  0  0  0  0  0  0  0  0
  104.1180   26.9939   -0.2064 O   0  0  0  0  0  0  0  0  0  0  0  0
  101.9389   28.4636    0.0778 O   0  0  0  0  0  0  0  0  0  0  0  0
  103.7800   29.1349   -1.4379 O   0  0  0  0  0  0  0  0  0  0  0  0
  104.8593   28.8913   -2.3171 C   0  0  0  0  0  0  0  0  0  0  0  0
  105.9665   29.9322   -2.0920 C   0  0  1  0  0  0  0  0  0  0  0  0
  105.5345   31.2510   -2.5345 O   0  0  0  0  0  0  0  0  0  0  0  0
  106.4017   30.0670   -0.6321 C   0  0  1  0  0  0  0  0  0  0  0  0
  107.8167   30.3737   -0.5710 O   0  0  0  0  0  0  0  0  0  0  0  0
  105.6183   31.2770   -0.1292 C   0  0  1  0  0  0  0  0  0  0  0  0
  106.2860   31.9144    0.9761 O   0  0  0  0  0  0  0  0  0  0  0  0
  105.5076   32.1525   -1.4005 C   0  0  2  0  0  0  0  0  0  0  0  0
  104.3248   33.0032   -1.5088 N   0  3  0  0  0  0  0  0  0  0  0  0
  103.0280   32.5617   -1.3538 C   0  0  0  0  0  0  0  0  0  0  0  0
  102.1382   33.5155   -1.5450 N   0  0  0  0  0  0  0  0  0  0  0  0
  102.8807   34.6073   -1.8748 C   0  0  0  0  0  0  0  0  0  0  0  0
  102.4340   35.9345   -2.2225 C   0  0  0  0  0  0  0  0  0  0  0  0
  101.2719   36.3355   -2.2744 O   0  0  0  0  0  0  0  0  0  0  0  0
  103.4854   36.7879   -2.4992 N   0  3  0  0  0  0  0  0  0  0  0  0
  104.8146   36.4309   -2.4174 C   0  0  0  0  0  0  0  0  0  0  0  0
  105.6768   37.4472   -2.6810 N   0  0  0  0  0  0  0  0  0  0  0  0
  105.2439   35.2349   -2.1056 N   0  0  0  0  0  0  0  0  0  0  0  0
  104.2396   34.3417   -1.8469 C   0  0  0  0  0  0  0  0  0  0  0  0
  102.1493   23.9587   -2.9557 H   0  0  0  0  0  0  0  0  0  0  0  0
  103.4301   25.0553   -2.8173 H   0  0  0  0  0  0  0  0  0  0  0  0
  104.4792   28.9608   -3.3409 H   0  0  0  0  0  0  0  0  0  0  0  0
  105.2689   27.8838   -2.1775 H   0  0  0  0  0  0  0  0  0  0  0  0
  106.8164   29.6618   -2.7292 H   0  0  0  0  0  0  0  0  0  0  0  0
  106.2425   29.1574   -0.0423 H   0  0  0  0  0  0  0  0  0  0  0  0
  108.0678   30.2014    0.3556 H   0  0  0  0  0  0  0  0  0  0  0  0
  104.6392   30.9508    0.2276 H   0  0  0  0  0  0  0  0  0  0  0  0
  107.1761   32.1625    0.6725 H   0  0  0  0  0  0  0  0  0  0  0  0
  106.3815   32.8101   -1.4845 H   0  0  0  0  0  0  0  0  0  0  0  0
  102.7861   31.5322   -1.1059 H   0  0  0  0  0  0  0  0  0  0  0  0
  103.2118   37.7127   -2.7215 H   0  0  0  0  0  0  0  0  0  0  0  0
  106.6558   37.2132   -2.7367 H   0  0  0  0  0  0  0  0  0  0  0  0
  105.3760   38.3386   -3.0389 H   0  0  0  0  0  0  0  0  0  0  0  0
  1 29  1  0  0  0  0
  1 30  1  0  0  0  0
  2  1  1  6  0  0  0
  2  3  2  0  0  0  0
  2  4  1  0  0  0  0
  2  5  1  0  0  0  0
  6  5  1  6  0  0  0
  6  7  2  0  0  0  0
  6  8  1  0  0  0  0
  6  9  1  0  0  0  0
  9 10  1  0  0  0  0
 10 11  1  0  0  0  0
 10 31  1  0  0  0  0
 10 32  1  0  0  0  0
 11 12  1  0  0  0  0
 11 13  1  0  0  0  0
 11 33  1  6  0  0  0
 12 17  1  0  0  0  0
 13 14  1  0  0  0  0
 13 15  1  0  0  0  0
 13 34  1  1  0  0  0
 14 35  1  0  0  0  0
 15 16  1  0  0  0  0
 15 17  1  0  0  0  0
 15 36  1  1  0  0  0
 16 37  1  0  0  0  0
 17 18  1  0  0  0  0
 17 38  1  6  0  0  0
 18 19  2  0  0  0  0
 18 28  1  0  0  0  0
 19 20  1  0  0  0  0
 19 39  1  0  0  0  0
 20 21  1  0  0  0  0
 21 22  1  0  0  0  0
 21 28  2  0  0  0  0
 22 23  2  0  0  0  0
 22 24  1  0  0  0  0
 24 25  1  0  0  0  0
 24 40  1  0  0  0  0
 25 26  1  0  0  0  0
 25 27  2  0  0  0  0
 26 41  1  0  0  0  0
 26 42  1  0  0  0  0
 27 28  1  0  0  0  0
M  CHG  2  18   1  24   1
M  END
$$$$
