GOX
 OpenBabel04041917133D

 26 26  0  0  1  0  0  0  0  0999 V2000
   74.8051   21.1319   89.4085 C   0  0  2  0  0  0  0  0  0  0  0  0
   74.9449   21.1016   90.8873 N   0  0  0  0  0  0  0  0  0  0  0  0
   73.7863   22.1776   88.9062 C   0  0  2  0  0  0  0  0  0  0  0  0
   74.7132   19.7801   88.8019 N   0  3  0  0  0  0  0  0  0  0  0  0
   75.7515   20.2285   91.2360 O   0  0  0  0  0  0  0  0  0  0  0  0
   72.7293   22.5089   89.8045 O   0  0  0  0  0  0  0  0  0  0  0  0
   73.2480   21.8883   87.4947 C   0  0  1  0  0  0  0  0  0  0  0  0
   72.9782   23.1507   86.8762 O   0  0  0  0  0  0  0  0  0  0  0  0
   74.2520   21.0283   86.6830 C   0  0  2  0  0  0  0  0  0  0  0  0
   73.8314   20.8566   85.3325 O   0  0  0  0  0  0  0  0  0  0  0  0
   74.3125   19.6364   87.3587 C   0  0  1  0  0  0  0  0  0  0  0  0
   75.3410   18.6768   86.7476 C   0  0  0  0  0  0  0  0  0  0  0  0
   76.6362   19.2089   87.0389 O   0  0  0  0  0  0  0  0  0  0  0  0
   75.7756   21.4935   89.0448 H   0  0  0  0  0  0  0  0  0  0  0  0
   74.3553   23.1210   88.8369 H   0  0  0  0  0  0  0  0  0  0  0  0
   75.7053   19.4628   88.8407 H   0  0  0  0  0  0  0  0  0  0  0  0
   72.0393   21.8484   89.8564 H   0  0  0  0  0  0  0  0  0  0  0  0
   72.2775   21.3668   87.5379 H   0  0  0  0  0  0  0  0  0  0  0  0
   72.3231   23.6260   87.4231 H   0  0  0  0  0  0  0  0  0  0  0  0
   75.2217   21.5279   86.6618 H   0  0  0  0  0  0  0  0  0  0  0  0
   74.5662   20.4931   84.7965 H   0  0  0  0  0  0  0  0  0  0  0  0
   73.3251   19.1706   87.3424 H   0  0  0  0  0  0  0  0  0  0  0  0
   75.2064   18.5053   85.6773 H   0  0  0  0  0  0  0  0  0  0  0  0
   75.2807   17.7030   87.2513 H   0  0  0  0  0  0  0  0  0  0  0  0
   76.8657   19.8804   86.3653 H   0  0  0  0  0  0  0  0  0  0  0  0
   74.2496   19.0908   89.4148 H   0  0  0  0  0  0  0  0  0  0  0  0
  1  2  1  0  0  0  0
  1  3  1  0  0  0  0
  1  4  1  0  0  0  0
  1 14  1  6  0  0  0
  2  5  2  0  0  0  0
  3  6  1  0  0  0  0
  3  7  1  0  0  0  0
  3 15  1  6  0  0  0
  4 11  1  0  0  0  0
  4 16  1  0  0  0  0
  4 26  1  0  0  0  0
  6 17  1  0  0  0  0
  7  8  1  0  0  0  0
  7  9  1  0  0  0  0
  7 18  1  1  0  0  0
  8 19  1  0  0  0  0
  9 10  1  0  0  0  0
  9 11  1  0  0  0  0
  9 20  1  1  0  0  0
 10 21  1  0  0  0  0
 11 12  1  0  0  0  0
 11 22  1  6  0  0  0
 12 13  1  0  0  0  0
 12 23  1  0  0  0  0
 12 24  1  0  0  0  0
 13 25  1  0  0  0  0
M  CHG  1   4   1
M  END
$$$$
