GP6
 OpenBabel04041914013D

 34 35  0  0  0  0  0  0  0  0999 V2000
   -2.8054   13.9561   14.4364 N   0  0  0  0  0  0  0  0  0  0  0  0
   -2.0181   12.1965   15.6354 N   0  0  0  0  0  0  0  0  0  0  0  0
   -2.2590   13.4779   15.5388 C   0  0  0  0  0  0  0  0  0  0  0  0
   -1.8942   14.3790   16.6306 C   0  0  0  0  0  0  0  0  0  0  0  0
   -1.9467   15.7799   16.4679 C   0  0  0  0  0  0  0  0  0  0  0  0
   -1.5154   16.6155   17.4895 C   0  0  0  0  0  0  0  0  0  0  0  0
   -1.0839   16.0702   18.6931 C   0  0  0  0  0  0  0  0  0  0  0  0
   -1.0552   14.6953   18.8865 C   0  0  0  0  0  0  0  0  0  0  0  0
   -1.4390   13.8606   17.8521 C   0  0  0  0  0  0  0  0  0  0  0  0
   -0.7308   16.8970   19.7499 N   0  0  0  0  0  0  0  0  0  0  0  0
    0.2300   17.8760   19.6208 C   0  0  0  0  0  0  0  0  0  0  0  0
    0.7619   18.1782   18.5587 O   0  0  0  0  0  0  0  0  0  0  0  0
    0.5214   18.4283   20.8472 N   0  0  0  0  0  0  0  0  0  0  0  0
    1.5665   19.3196   21.0790 C   0  0  0  0  0  0  0  0  0  0  0  0
    1.4133   20.2353   22.1220 C   0  0  0  0  0  0  0  0  0  0  0  0
    2.4593   21.1096   22.4249 C   0  0  0  0  0  0  0  0  0  0  0  0
    3.6484   21.0368   21.7002 C   0  0  0  0  0  0  0  0  0  0  0  0
    3.8017   20.1254   20.6605 C   0  0  0  0  0  0  0  0  0  0  0  0
    2.7509   19.2652   20.3460 C   0  0  0  0  0  0  0  0  0  0  0  0
    4.9404   22.1113   22.0722 Cl  0  0  0  0  0  0  0  0  0  0  0  0
   -2.9929   13.3652   13.6363 H   0  0  0  0  0  0  0  0  0  0  0  0
   -1.6203   11.7885   16.4726 H   0  0  0  0  0  0  0  0  0  0  0  0
   -2.1767   11.5521   14.8614 H   0  0  0  0  0  0  0  0  0  0  0  0
   -2.2743   16.2404   15.5559 H   0  0  0  0  0  0  0  0  0  0  0  0
   -1.5783   17.6960   17.3631 H   0  0  0  0  0  0  0  0  0  0  0  0
   -0.6783   14.2675   19.8121 H   0  0  0  0  0  0  0  0  0  0  0  0
   -1.3596   12.7966   18.0297 H   0  0  0  0  0  0  0  0  0  0  0  0
   -1.0347   16.6470   20.6766 H   0  0  0  0  0  0  0  0  0  0  0  0
   -0.1317   18.2817   21.6000 H   0  0  0  0  0  0  0  0  0  0  0  0
    0.4723   20.3038   22.6636 H   0  0  0  0  0  0  0  0  0  0  0  0
    2.3324   21.8336   23.2213 H   0  0  0  0  0  0  0  0  0  0  0  0
    4.7275   20.0702   20.1004 H   0  0  0  0  0  0  0  0  0  0  0  0
    2.8969   18.5304   19.5563 H   0  0  0  0  0  0  0  0  0  0  0  0
   -3.0350   14.9349   14.3381 H   0  0  0  0  0  0  0  0  0  0  0  0
  1  3  2  0  0  0  0
  1 21  1  0  0  0  0
  1 34  1  0  0  0  0
  2  3  1  0  0  0  0
  2 22  1  0  0  0  0
  2 23  1  0  0  0  0
  3  4  1  0  0  0  0
  4  5  2  0  0  0  0
  4  9  1  0  0  0  0
  5  6  1  0  0  0  0
  5 24  1  0  0  0  0
  6  7  2  0  0  0  0
  6 25  1  0  0  0  0
  7  8  1  0  0  0  0
  7 10  1  0  0  0  0
  8  9  2  0  0  0  0
  8 26  1  0  0  0  0
  9 27  1  0  0  0  0
 10 11  1  0  0  0  0
 10 28  1  0  0  0  0
 11 12  2  0  0  0  0
 11 13  1  0  0  0  0
 13 14  1  0  0  0  0
 13 29  1  0  0  0  0
 14 15  2  0  0  0  0
 14 19  1  0  0  0  0
 15 16  1  0  0  0  0
 15 30  1  0  0  0  0
 16 17  2  0  0  0  0
 16 31  1  0  0  0  0
 17 18  1  0  0  0  0
 17 20  1  0  0  0  0
 18 19  2  0  0  0  0
 18 32  1  0  0  0  0
 19 33  1  0  0  0  0
M  END
$$$$
