GP8
 OpenBabel04041914023D

 45 47  0  0  0  0  0  0  0  0999 V2000
   -2.8364   13.7728   13.7886 N   0  0  0  0  0  0  0  0  0  0  0  0
   -1.9910   12.0017   14.9284 N   0  0  0  0  0  0  0  0  0  0  0  0
   -2.2462   13.2881   14.8694 C   0  0  0  0  0  0  0  0  0  0  0  0
   -1.8757   14.1732   15.9857 C   0  0  0  0  0  0  0  0  0  0  0  0
   -1.8994   15.5698   15.8294 C   0  0  0  0  0  0  0  0  0  0  0  0
   -1.4987   16.4056   16.8607 C   0  0  0  0  0  0  0  0  0  0  0  0
   -1.0963   15.8626   18.0722 C   0  0  0  0  0  0  0  0  0  0  0  0
   -1.0639   14.4892   18.2657 C   0  0  0  0  0  0  0  0  0  0  0  0
   -1.4366   13.6503   17.2191 C   0  0  0  0  0  0  0  0  0  0  0  0
   -0.7338   16.7055   19.1182 N   0  0  0  0  0  0  0  0  0  0  0  0
    0.2809   17.6344   18.9663 C   0  0  0  0  0  0  0  0  0  0  0  0
    0.8303   17.8896   17.9013 O   0  0  0  0  0  0  0  0  0  0  0  0
    0.5729   18.2273   20.1739 N   0  0  0  0  0  0  0  0  0  0  0  0
    1.4820   19.2738   20.3077 C   0  0  0  0  0  0  0  0  0  0  0  0
    1.0883   20.4105   21.0236 C   0  0  0  0  0  0  0  0  0  0  0  0
    1.9999   21.4407   21.2324 C   0  0  0  0  0  0  0  0  0  0  0  0
    3.3093   21.2940   20.7873 C   0  0  0  0  0  0  0  0  0  0  0  0
    3.6948   20.1617   20.0486 C   0  0  0  0  0  0  0  0  0  0  0  0
    2.7723   19.1549   19.7981 C   0  0  0  0  0  0  0  0  0  0  0  0
    4.2251   22.3160   20.8585 O   0  0  0  0  0  0  0  0  0  0  0  0
    4.7296   22.7282   22.0767 C   0  0  0  0  0  0  0  0  0  0  0  0
    5.7734   23.6721   21.9871 C   0  0  0  0  0  0  0  0  0  0  0  0
    6.3797   24.1913   23.1341 C   0  0  0  0  0  0  0  0  0  0  0  0
    5.9522   23.7672   24.3885 C   0  0  0  0  0  0  0  0  0  0  0  0
    4.9189   22.8318   24.4905 C   0  0  0  0  0  0  0  0  0  0  0  0
    4.3141   22.3070   23.3391 C   0  0  0  0  0  0  0  0  0  0  0  0
   -3.0607   13.2096   12.9928 H   0  0  0  0  0  0  0  0  0  0  0  0
   -1.5793   11.5781   15.7494 H   0  0  0  0  0  0  0  0  0  0  0  0
   -2.2032   11.3677   14.1563 H   0  0  0  0  0  0  0  0  0  0  0  0
   -2.2077   16.0555   14.9123 H   0  0  0  0  0  0  0  0  0  0  0  0
   -1.5174   17.4852   16.7226 H   0  0  0  0  0  0  0  0  0  0  0  0
   -0.6824   14.0638   19.1910 H   0  0  0  0  0  0  0  0  0  0  0  0
   -1.3581   12.5847   17.4083 H   0  0  0  0  0  0  0  0  0  0  0  0
   -1.0240   16.4552   20.0495 H   0  0  0  0  0  0  0  0  0  0  0  0
   -0.0596   18.0801   20.9484 H   0  0  0  0  0  0  0  0  0  0  0  0
    0.0571   20.5173   21.3544 H   0  0  0  0  0  0  0  0  0  0  0  0
    1.6780   22.3496   21.7387 H   0  0  0  0  0  0  0  0  0  0  0  0
    4.7051   20.0758   19.6577 H   0  0  0  0  0  0  0  0  0  0  0  0
    3.0665   18.2711   19.2390 H   0  0  0  0  0  0  0  0  0  0  0  0
    6.1152   23.9905   21.0048 H   0  0  0  0  0  0  0  0  0  0  0  0
    7.1942   24.9076   23.0414 H   0  0  0  0  0  0  0  0  0  0  0  0
    6.4155   24.1672   25.2856 H   0  0  0  0  0  0  0  0  0  0  0  0
    4.5830   22.5099   25.4740 H   0  0  0  0  0  0  0  0  0  0  0  0
    3.5193   21.5809   23.4633 H   0  0  0  0  0  0  0  0  0  0  0  0
   -3.0956   14.7483   13.7235 H   0  0  0  0  0  0  0  0  0  0  0  0
  1  3  2  0  0  0  0
  1 27  1  0  0  0  0
  1 45  1  0  0  0  0
  2  3  1  0  0  0  0
  2 28  1  0  0  0  0
  2 29  1  0  0  0  0
  3  4  1  0  0  0  0
  4  5  2  0  0  0  0
  4  9  1  0  0  0  0
  5  6  1  0  0  0  0
  5 30  1  0  0  0  0
  6  7  2  0  0  0  0
  6 31  1  0  0  0  0
  7  8  1  0  0  0  0
  7 10  1  0  0  0  0
  8  9  2  0  0  0  0
  8 32  1  0  0  0  0
  9 33  1  0  0  0  0
 10 11  1  0  0  0  0
 10 34  1  0  0  0  0
 11 12  2  0  0  0  0
 11 13  1  0  0  0  0
 13 14  1  0  0  0  0
 13 35  1  0  0  0  0
 14 15  2  0  0  0  0
 14 19  1  0  0  0  0
 15 16  1  0  0  0  0
 15 36  1  0  0  0  0
 16 17  2  0  0  0  0
 16 37  1  0  0  0  0
 17 18  1  0  0  0  0
 17 20  1  0  0  0  0
 18 19  2  0  0  0  0
 18 38  1  0  0  0  0
 19 39  1  0  0  0  0
 20 21  1  0  0  0  0
 21 22  2  0  0  0  0
 21 26  1  0  0  0  0
 22 23  1  0  0  0  0
 22 40  1  0  0  0  0
 23 24  2  0  0  0  0
 23 41  1  0  0  0  0
 24 25  1  0  0  0  0
 24 42  1  0  0  0  0
 25 26  2  0  0  0  0
 25 43  1  0  0  0  0
 26 44  1  0  0  0  0
M  END
$$$$
