GSH
 OpenBabel04041916103D

 36 35  0  0  1  0  0  0  0  0999 V2000
   15.0281   -4.0798   22.3218 N   0  3  0  0  0  0  0  0  0  0  0  0
   14.6724   -2.6401   22.6664 C   0  0  2  0  0  0  0  0  0  0  0  0
   14.7431   -1.8116   21.3471 C   0  0  0  0  0  0  0  0  0  0  0  0
   13.9742   -0.8378   21.2492 O   0  0  0  0  0  0  0  0  0  0  0  0
   15.5218   -2.3818   20.5183 O   0  0  0  0  0  0  0  0  0  0  0  0
   15.7434   -2.1157   23.6054 C   0  0  0  0  0  0  0  0  0  0  0  0
   15.3762   -0.7672   24.2267 C   0  0  0  0  0  0  0  0  0  0  0  0
   16.3905   -0.4310   25.2833 C   0  0  0  0  0  0  0  0  0  0  0  0
   17.0720   -1.3076   25.8268 O   0  0  0  0  0  0  0  0  0  0  0  0
   16.5006    0.8862   25.6038 N   0  0  0  0  0  0  0  0  0  0  0  0
   17.4239    1.3150   26.6490 C   0  0  2  0  0  0  0  0  0  0  0  0
   16.6732    2.3346   27.5047 C   0  0  0  0  0  0  0  0  0  0  0  0
   15.6941    2.9317   27.0413 O   0  0  0  0  0  0  0  0  0  0  0  0
   18.6312    2.0558   26.0669 C   0  0  0  0  0  0  0  0  0  0  0  0
   19.5101    1.2018   24.7092 S   0  0  0  0  0  0  0  0  0  0  0  0
   17.2677    2.6688   28.6998 N   0  0  0  0  0  0  0  0  0  0  0  0
   16.5423    3.5748   29.6030 C   0  0  0  0  0  0  0  0  0  0  0  0
   15.6706    2.9205   30.7052 C   0  0  0  0  0  0  0  0  0  0  0  0
   15.2221    3.7293   31.5669 O   0  0  0  0  0  0  0  0  0  0  0  0
   15.5599    1.6591   30.6468 O   0  0  0  0  0  0  0  0  0  0  0  0
   15.0508   -4.7249   23.1088 H   0  0  0  0  0  0  0  0  0  0  0  0
   14.4092   -4.3824   21.5664 H   0  0  0  0  0  0  0  0  0  0  0  0
   13.6831   -2.6644   23.1199 H   0  0  0  0  0  0  0  0  0  0  0  0
   16.7041   -2.0017   23.0747 H   0  0  0  0  0  0  0  0  0  0  0  0
   15.9298   -2.8546   24.3979 H   0  0  0  0  0  0  0  0  0  0  0  0
   14.3947   -0.8256   24.7133 H   0  0  0  0  0  0  0  0  0  0  0  0
   15.3512    0.0288   23.4691 H   0  0  0  0  0  0  0  0  0  0  0  0
   15.9402    1.6103   25.1567 H   0  0  0  0  0  0  0  0  0  0  0  0
   17.7318    0.4558   27.2526 H   0  0  0  0  0  0  0  0  0  0  0  0
   19.3455    2.2907   26.8643 H   0  0  0  0  0  0  0  0  0  0  0  0
   18.2900    3.0089   25.6503 H   0  0  0  0  0  0  0  0  0  0  0  0
   19.8377    0.0877   25.3781 H   0  0  0  0  0  0  0  0  0  0  0  0
   17.9140    2.0315   29.1458 H   0  0  0  0  0  0  0  0  0  0  0  0
   15.8918    4.2176   29.0002 H   0  0  0  0  0  0  0  0  0  0  0  0
   17.3014    4.2105   30.0667 H   0  0  0  0  0  0  0  0  0  0  0  0
   15.9403   -4.0091   21.8513 H   0  0  0  0  0  0  0  0  0  0  0  0
  1  2  1  0  0  0  0
  1 21  1  0  0  0  0
  1 22  1  0  0  0  0
  1 36  1  0  0  0  0
  2  3  1  0  0  0  0
  2  6  1  0  0  0  0
  2 23  1  1  0  0  0
  3  4  2  0  0  0  0
  3  5  1  0  0  0  0
  6  7  1  0  0  0  0
  6 24  1  0  0  0  0
  6 25  1  0  0  0  0
  7  8  1  0  0  0  0
  7 26  1  0  0  0  0
  7 27  1  0  0  0  0
  8  9  2  0  0  0  0
  8 10  1  0  0  0  0
 10 11  1  0  0  0  0
 10 28  1  0  0  0  0
 11 12  1  0  0  0  0
 11 14  1  0  0  0  0
 11 29  1  1  0  0  0
 12 13  2  0  0  0  0
 12 16  1  0  0  0  0
 14 15  1  0  0  0  0
 14 30  1  0  0  0  0
 14 31  1  0  0  0  0
 15 32  1  0  0  0  0
 16 17  1  0  0  0  0
 16 33  1  0  0  0  0
 17 18  1  0  0  0  0
 17 34  1  0  0  0  0
 17 35  1  0  0  0  0
 18 19  2  0  0  0  0
 18 20  1  0  0  0  0
M  CHG  1   1   1
M  END
$$$$
