GTX
 OpenBabel04041917483D

 54 53  0  0  1  0  0  0  0  0999 V2000
   25.7955   24.1485   13.1589 N   0  3  0  0  0  0  0  0  0  0  0  0
   26.6286   25.2629   12.5548 C   0  0  2  0  0  0  0  0  0  0  0  0
   27.2262   24.8346   11.1838 C   0  0  0  0  0  0  0  0  0  0  0  0
   27.4857   25.7691   10.3638 O   0  0  0  0  0  0  0  0  0  0  0  0
   27.2455   23.5738   11.0642 O   0  0  0  0  0  0  0  0  0  0  0  0
   27.7356   25.5825   13.5430 C   0  0  0  0  0  0  0  0  0  0  0  0
   28.3816   26.9232   13.2156 C   0  0  0  0  0  0  0  0  0  0  0  0
   29.4099   27.2790   14.2554 C   0  0  0  0  0  0  0  0  0  0  0  0
   29.4586   26.7460   15.3595 O   0  0  0  0  0  0  0  0  0  0  0  0
   30.2607   28.2687   13.8484 N   0  0  0  0  0  0  0  0  0  0  0  0
   31.2139   28.8711   14.7730 C   0  0  2  0  0  0  0  0  0  0  0  0
   30.8509   30.3475   14.9595 C   0  0  0  0  0  0  0  0  0  0  0  0
   30.5942   31.0660   13.9992 O   0  0  0  0  0  0  0  0  0  0  0  0
   32.6330   28.8462   14.2202 C   0  0  0  0  0  0  0  0  0  0  0  0
   33.1918   27.1763   13.7561 S   0  0  0  0  0  0  0  0  0  0  0  0
   33.8393   26.7246   15.3794 C   0  0  0  0  0  0  0  0  0  0  0  0
   35.1773   26.0206   15.2357 C   0  0  0  0  0  0  0  0  0  0  0  0
   35.0081   24.5014   15.2395 C   0  0  0  0  0  0  0  0  0  0  0  0
   36.0730   23.8221   16.0949 C   0  0  0  0  0  0  0  0  0  0  0  0
   37.4542   23.8485   15.4469 C   0  0  0  0  0  0  0  0  0  0  0  0
   38.5428   23.7599   16.5020 C   0  0  0  0  0  0  0  0  0  0  0  0
   30.9926   30.8070   16.2524 N   0  0  0  0  0  0  0  0  0  0  0  0
   30.3993   32.0898   16.6641 C   0  0  0  0  0  0  0  0  0  0  0  0
   29.0772   32.0314   17.4748 C   0  0  0  0  0  0  0  0  0  0  0  0
   28.6808   33.1462   17.9299 O   0  0  0  0  0  0  0  0  0  0  0  0
   28.5685   30.8808   17.6316 O   0  0  0  0  0  0  0  0  0  0  0  0
   25.4028   24.3814   14.0703 H   0  0  0  0  0  0  0  0  0  0  0  0
   25.0767   23.9064   12.4684 H   0  0  0  0  0  0  0  0  0  0  0  0
   25.9389   26.1025   12.4332 H   0  0  0  0  0  0  0  0  0  0  0  0
   28.5071   24.8002   13.5393 H   0  0  0  0  0  0  0  0  0  0  0  0
   27.3327   25.6174   14.5643 H   0  0  0  0  0  0  0  0  0  0  0  0
   27.6184   27.7122   13.1954 H   0  0  0  0  0  0  0  0  0  0  0  0
   28.8654   26.8880   12.2332 H   0  0  0  0  0  0  0  0  0  0  0  0
   30.1769   28.6832   12.9244 H   0  0  0  0  0  0  0  0  0  0  0  0
   31.1631   28.3602   15.7434 H   0  0  0  0  0  0  0  0  0  0  0  0
   33.3165   29.2593   14.9713 H   0  0  0  0  0  0  0  0  0  0  0  0
   32.7263   29.4852   13.3404 H   0  0  0  0  0  0  0  0  0  0  0  0
   33.0955   26.1329   15.9197 H   0  0  0  0  0  0  0  0  0  0  0  0
   34.0084   27.6298   15.9668 H   0  0  0  0  0  0  0  0  0  0  0  0
   35.8024   26.3356   16.0805 H   0  0  0  0  0  0  0  0  0  0  0  0
   35.7152   26.3413   14.3327 H   0  0  0  0  0  0  0  0  0  0  0  0
   35.0383   24.1270   14.2108 H   0  0  0  0  0  0  0  0  0  0  0  0
   34.0295   24.2293   15.6504 H   0  0  0  0  0  0  0  0  0  0  0  0
   35.7772   22.7814   16.2672 H   0  0  0  0  0  0  0  0  0  0  0  0
   36.1020   24.3059   17.0800 H   0  0  0  0  0  0  0  0  0  0  0  0
   37.6003   24.7636   14.8634 H   0  0  0  0  0  0  0  0  0  0  0  0
   37.5444   23.0046   14.7529 H   0  0  0  0  0  0  0  0  0  0  0  0
   39.5305   23.7719   16.0332 H   0  0  0  0  0  0  0  0  0  0  0  0
   38.4459   22.8414   17.0886 H   0  0  0  0  0  0  0  0  0  0  0  0
   38.4823   24.6130   17.1869 H   0  0  0  0  0  0  0  0  0  0  0  0
   31.1280   30.1459   17.0078 H   0  0  0  0  0  0  0  0  0  0  0  0
   30.2224   32.6996   15.7737 H   0  0  0  0  0  0  0  0  0  0  0  0
   31.1599   32.5752   17.2812 H   0  0  0  0  0  0  0  0  0  0  0  0
   26.4082   23.3178   13.1821 H   0  0  0  0  0  0  0  0  0  0  0  0
  1  2  1  0  0  0  0
  1 27  1  0  0  0  0
  1 28  1  0  0  0  0
  1 54  1  0  0  0  0
  2  3  1  0  0  0  0
  2  6  1  0  0  0  0
  2 29  1  6  0  0  0
  3  4  2  0  0  0  0
  3  5  1  0  0  0  0
  6  7  1  0  0  0  0
  6 30  1  0  0  0  0
  6 31  1  0  0  0  0
  7  8  1  0  0  0  0
  7 32  1  0  0  0  0
  7 33  1  0  0  0  0
  8  9  2  0  0  0  0
  8 10  1  0  0  0  0
 10 11  1  0  0  0  0
 10 34  1  0  0  0  0
 11 12  1  0  0  0  0
 11 14  1  0  0  0  0
 11 35  1  1  0  0  0
 12 13  2  0  0  0  0
 12 22  1  0  0  0  0
 14 15  1  0  0  0  0
 14 36  1  0  0  0  0
 14 37  1  0  0  0  0
 15 16  1  0  0  0  0
 16 17  1  0  0  0  0
 16 38  1  0  0  0  0
 16 39  1  0  0  0  0
 17 18  1  0  0  0  0
 17 40  1  0  0  0  0
 17 41  1  0  0  0  0
 18 19  1  0  0  0  0
 18 42  1  0  0  0  0
 18 43  1  0  0  0  0
 19 20  1  0  0  0  0
 19 44  1  0  0  0  0
 19 45  1  0  0  0  0
 20 21  1  0  0  0  0
 20 46  1  0  0  0  0
 20 47  1  0  0  0  0
 21 48  1  0  0  0  0
 21 49  1  0  0  0  0
 21 50  1  0  0  0  0
 22 23  1  0  0  0  0
 22 51  1  0  0  0  0
 23 24  1  0  0  0  0
 23 52  1  0  0  0  0
 23 53  1  0  0  0  0
 24 25  2  0  0  0  0
 24 26  1  0  0  0  0
M  CHG  1   1   1
M  END
$$$$
