HAL
 OpenBabel04041915453D

 60 61  0  0  1  0  0  0  0  0999 V2000
    0.9374   44.7854   49.5330 C   0  0  0  0  0  0  0  0  0  0  0  0
    1.8181   45.3064   48.5771 C   0  0  0  0  0  0  0  0  0  0  0  0
    1.6191   45.0498   47.2188 C   0  0  0  0  0  0  0  0  0  0  0  0
    0.5353   44.2769   46.8036 C   0  0  0  0  0  0  0  0  0  0  0  0
   -0.3626   43.7774   47.7444 C   0  0  0  0  0  0  0  0  0  0  0  0
   -0.1686   44.0395   49.1008 C   0  0  0  0  0  0  0  0  0  0  0  0
    1.2073   44.9700   51.0119 C   0  0  0  0  0  0  0  0  0  0  0  0
    1.4976   43.6282   51.6821 C   0  0  0  0  0  0  0  0  0  0  0  0
    1.8569   43.7365   53.0729 N   0  0  0  0  0  0  0  0  0  0  0  0
    1.9713   42.6026   53.8660 C   0  0  0  0  0  0  0  0  0  0  0  0
    1.7690   41.4737   53.4379 O   0  0  0  0  0  0  0  0  0  0  0  0
    2.4051   42.8444   55.3021 C   0  0  0  0  0  0  0  0  0  0  0  0
    1.9260   44.0465   55.8387 O   0  0  0  0  0  0  0  0  0  0  0  0
    2.9006   45.3356   55.7243 P   0  0  2  0  0  0  0  0  0  0  0  0
    2.4056   46.1488   54.5441 O   0  0  0  0  0  0  0  0  0  0  0  0
    4.3431   44.8995   55.8106 O   0  0  0  0  0  0  0  0  0  0  0  0
    2.4701   46.1742   57.2942 C   0  0  1  0  0  0  0  0  0  0  0  0
    3.1890   47.5111   57.3179 C   0  0  0  0  0  0  0  0  0  0  0  0
    2.9062   48.2675   58.5868 C   0  0  0  0  0  0  0  0  0  0  0  0
    3.7540   48.1323   59.6878 C   0  0  0  0  0  0  0  0  0  0  0  0
    3.4515   48.7831   60.8811 C   0  0  0  0  0  0  0  0  0  0  0  0
    2.2937   49.5546   60.9840 C   0  0  0  0  0  0  0  0  0  0  0  0
    1.4371   49.6804   59.8937 C   0  0  0  0  0  0  0  0  0  0  0  0
    1.7431   49.0406   58.6985 C   0  0  0  0  0  0  0  0  0  0  0  0
    1.0204   46.3396   57.3858 N   0  0  0  0  0  0  0  0  0  0  0  0
    0.3221   45.7136   58.3810 C   0  0  0  0  0  0  0  0  0  0  0  0
    0.8249   44.8651   59.1240 O   0  0  0  0  0  0  0  0  0  0  0  0
   -1.1237   46.1470   58.4817 C   0  0  0  0  0  0  0  0  0  0  0  0
   -1.6521   46.0604   59.9153 C   0  0  0  0  0  0  0  0  0  0  0  0
   -0.8439   46.9076   60.8975 C   0  0  0  0  0  0  0  0  0  0  0  0
   -1.3809   46.8958   62.3333 C   0  0  0  0  0  0  0  0  0  0  0  0
   -1.1634   47.9582   62.9853 O   0  0  0  0  0  0  0  0  0  0  0  0
   -1.9842   45.8505   62.7043 O   0  0  0  0  0  0  0  0  0  0  0  0
    2.6745   45.8995   48.8918 H   0  0  0  0  0  0  0  0  0  0  0  0
    2.3195   45.4425   46.4871 H   0  0  0  0  0  0  0  0  0  0  0  0
    0.3910   44.0620   45.7490 H   0  0  0  0  0  0  0  0  0  0  0  0
   -1.2073   43.1722   47.4280 H   0  0  0  0  0  0  0  0  0  0  0  0
   -0.8711   43.6383   49.8284 H   0  0  0  0  0  0  0  0  0  0  0  0
    0.3403   45.4505   51.4816 H   0  0  0  0  0  0  0  0  0  0  0  0
    2.0590   45.6463   51.1577 H   0  0  0  0  0  0  0  0  0  0  0  0
    2.3134   43.1089   51.1627 H   0  0  0  0  0  0  0  0  0  0  0  0
    0.6154   42.9764   51.6232 H   0  0  0  0  0  0  0  0  0  0  0  0
    2.0829   44.6488   53.4876 H   0  0  0  0  0  0  0  0  0  0  0  0
    3.5009   42.7821   55.3436 H   0  0  0  0  0  0  0  0  0  0  0  0
    2.0092   42.0284   55.9168 H   0  0  0  0  0  0  0  0  0  0  0  0
    2.8322   45.5111   58.0856 H   0  0  0  0  0  0  0  0  0  0  0  0
    2.8836   48.1199   56.4572 H   0  0  0  0  0  0  0  0  0  0  0  0
    4.2691   47.3558   57.1983 H   0  0  0  0  0  0  0  0  0  0  0  0
    4.6357   47.5003   59.6191 H   0  0  0  0  0  0  0  0  0  0  0  0
    4.1068   48.6696   61.7377 H   0  0  0  0  0  0  0  0  0  0  0  0
    2.0390   50.0351   61.9237 H   0  0  0  0  0  0  0  0  0  0  0  0
    0.5131   50.2433   59.9862 H   0  0  0  0  0  0  0  0  0  0  0  0
    1.0482   49.1054   57.8647 H   0  0  0  0  0  0  0  0  0  0  0  0
    0.5708   46.8921   56.6599 H   0  0  0  0  0  0  0  0  0  0  0  0
   -1.7059   45.4858   57.8312 H   0  0  0  0  0  0  0  0  0  0  0  0
   -1.2380   47.1685   58.1010 H   0  0  0  0  0  0  0  0  0  0  0  0
   -1.6456   45.0094   60.2402 H   0  0  0  0  0  0  0  0  0  0  0  0
   -2.6956   46.3897   59.9299 H   0  0  0  0  0  0  0  0  0  0  0  0
   -0.8219   47.9443   60.5388 H   0  0  0  0  0  0  0  0  0  0  0  0
    0.1885   46.5586   60.9433 H   0  0  0  0  0  0  0  0  0  0  0  0
  1  2  2  0  0  0  0
  1  6  1  0  0  0  0
  1  7  1  0  0  0  0
  2  3  1  0  0  0  0
  2 34  1  0  0  0  0
  3  4  2  0  0  0  0
  3 35  1  0  0  0  0
  4  5  1  0  0  0  0
  4 36  1  0  0  0  0
  5  6  2  0  0  0  0
  5 37  1  0  0  0  0
  6 38  1  0  0  0  0
  7  8  1  0  0  0  0
  7 39  1  0  0  0  0
  7 40  1  0  0  0  0
  8  9  1  0  0  0  0
  8 41  1  0  0  0  0
  8 42  1  0  0  0  0
  9 10  1  0  0  0  0
  9 43  1  0  0  0  0
 10 11  2  0  0  0  0
 10 12  1  0  0  0  0
 12 13  1  0  0  0  0
 12 44  1  0  0  0  0
 12 45  1  0  0  0  0
 14 13  1  6  0  0  0
 14 15  2  0  0  0  0
 14 16  1  0  0  0  0
 14 17  1  0  0  0  0
 17 18  1  0  0  0  0
 17 25  1  0  0  0  0
 17 46  1  1  0  0  0
 18 19  1  0  0  0  0
 18 47  1  0  0  0  0
 18 48  1  0  0  0  0
 19 20  2  0  0  0  0
 19 24  1  0  0  0  0
 20 21  1  0  0  0  0
 20 49  1  0  0  0  0
 21 22  2  0  0  0  0
 21 50  1  0  0  0  0
 22 23  1  0  0  0  0
 22 51  1  0  0  0  0
 23 24  2  0  0  0  0
 23 52  1  0  0  0  0
 24 53  1  0  0  0  0
 25 26  1  0  0  0  0
 25 54  1  0  0  0  0
 26 27  2  0  0  0  0
 26 28  1  0  0  0  0
 28 29  1  0  0  0  0
 28 55  1  0  0  0  0
 28 56  1  0  0  0  0
 29 30  1  0  0  0  0
 29 57  1  0  0  0  0
 29 58  1  0  0  0  0
 30 31  1  0  0  0  0
 30 59  1  0  0  0  0
 30 60  1  0  0  0  0
 31 32  2  0  0  0  0
 31 33  1  0  0  0  0
M  END
$$$$
