HAN
 OpenBabel04041917433D

 37 38  0  0  0  0  0  0  0  0999 V2000
   19.5733   87.8265   41.8948 N   0  3  0  0  0  0  0  0  0  0  0  0
   20.9523   87.9757   42.0515 C   0  0  0  0  0  0  0  0  0  0  0  0
   21.4759   88.6449   41.0182 N   0  0  0  0  0  0  0  0  0  0  0  0
   20.4822   89.6237   38.9191 C   0  0  0  0  0  0  0  0  0  0  0  0
   19.2866   89.8141   38.1749 C   0  0  0  0  0  0  0  0  0  0  0  0
   18.0619   89.3116   38.6974 C   0  0  0  0  0  0  0  0  0  0  0  0
   18.0187   88.6245   39.9517 C   0  0  0  0  0  0  0  0  0  0  0  0
   20.4471   88.9321   40.1687 C   0  0  0  0  0  0  0  0  0  0  0  0
   19.2383   88.4408   40.6678 C   0  0  0  0  0  0  0  0  0  0  0  0
   19.3890   90.5524   36.8479 C   0  0  0  0  0  0  0  0  0  0  0  0
   16.7234   89.4594   37.9869 C   0  0  0  0  0  0  0  0  0  0  0  0
   21.6644   87.5153   43.0813 N   0  0  0  0  0  0  0  0  0  0  0  0
   18.6335   87.1364   42.8202 C   0  0  0  0  0  0  0  0  0  0  0  0
   18.0125   88.0309   43.9132 C   0  0  0  0  0  0  0  0  0  0  0  0
   18.3870   87.5988   45.3468 C   0  0  0  0  0  0  0  0  0  0  0  0
   17.7246   86.2918   45.8003 C   0  0  0  0  0  0  0  0  0  0  0  0
   16.8565   86.4302   47.0991 C   0  0  0  0  0  0  0  0  0  0  0  0
   15.7865   85.7557   47.0674 O   0  0  0  0  0  0  0  0  0  0  0  0
   17.3291   87.1687   47.9911 O   0  0  0  0  0  0  0  0  0  0  0  0
   21.4365   90.0067   38.5327 H   0  0  0  0  0  0  0  0  0  0  0  0
   17.0996   88.2422   40.3470 H   0  0  0  0  0  0  0  0  0  0  0  0
   20.4254   90.8546   36.6300 H   0  0  0  0  0  0  0  0  0  0  0  0
   18.7833   91.4661   36.8571 H   0  0  0  0  0  0  0  0  0  0  0  0
   19.0585   89.9178   36.0170 H   0  0  0  0  0  0  0  0  0  0  0  0
   16.8218   89.9948   37.0391 H   0  0  0  0  0  0  0  0  0  0  0  0
   16.0070   90.0132   38.6102 H   0  0  0  0  0  0  0  0  0  0  0  0
   16.2845   88.4751   37.7700 H   0  0  0  0  0  0  0  0  0  0  0  0
   22.6648   87.6807   43.1184 H   0  0  0  0  0  0  0  0  0  0  0  0
   21.2661   87.0130   43.8652 H   0  0  0  0  0  0  0  0  0  0  0  0
   19.1644   86.3044   43.3033 H   0  0  0  0  0  0  0  0  0  0  0  0
   17.8077   86.6864   42.2408 H   0  0  0  0  0  0  0  0  0  0  0  0
   16.9135   88.0140   43.8347 H   0  0  0  0  0  0  0  0  0  0  0  0
   18.3425   89.0607   43.7563 H   0  0  0  0  0  0  0  0  0  0  0  0
   18.1069   88.4067   46.0309 H   0  0  0  0  0  0  0  0  0  0  0  0
   19.4789   87.4886   45.3929 H   0  0  0  0  0  0  0  0  0  0  0  0
   18.5106   85.5450   45.9928 H   0  0  0  0  0  0  0  0  0  0  0  0
   17.0966   85.8999   44.9904 H   0  0  0  0  0  0  0  0  0  0  0  0
  1  2  2  0  0  0  0
  1  9  1  0  0  0  0
  1 13  1  0  0  0  0
  2  3  1  0  0  0  0
  2 12  1  0  0  0  0
  3  8  1  0  0  0  0
  4  5  2  0  0  0  0
  4  8  1  0  0  0  0
  4 20  1  0  0  0  0
  5  6  1  0  0  0  0
  5 10  1  0  0  0  0
  6  7  2  0  0  0  0
  6 11  1  0  0  0  0
  7  9  1  0  0  0  0
  7 21  1  0  0  0  0
  8  9  2  0  0  0  0
 10 22  1  0  0  0  0
 10 23  1  0  0  0  0
 10 24  1  0  0  0  0
 11 25  1  0  0  0  0
 11 26  1  0  0  0  0
 11 27  1  0  0  0  0
 12 28  1  0  0  0  0
 12 29  1  0  0  0  0
 13 14  1  0  0  0  0
 13 30  1  0  0  0  0
 13 31  1  0  0  0  0
 14 15  1  0  0  0  0
 14 32  1  0  0  0  0
 14 33  1  0  0  0  0
 15 16  1  0  0  0  0
 15 34  1  0  0  0  0
 15 35  1  0  0  0  0
 16 17  1  0  0  0  0
 16 36  1  0  0  0  0
 16 37  1  0  0  0  0
 17 18  2  0  0  0  0
 17 19  1  0  0  0  0
M  CHG  1   1   1
M  END
$$$$
