HFP
 OpenBabel04041916353D

 45 44  0  0  1  0  0  0  0  0999 V2000
  197.8050  126.0913   32.7106 P   0  0  0  0  0  0  0  0  0  0  0  0
  199.0254  126.9667   32.5067 O   0  0  0  0  0  0  0  0  0  0  0  0
  198.0687  124.6559   33.0690 O   0  0  0  0  0  0  0  0  0  0  0  0
  196.6562  126.7456   33.5087 O   0  0  0  0  0  0  0  0  0  0  0  0
  197.1294  125.9730   30.8838 C   0  0  2  0  0  0  0  0  0  0  0  0
  197.3477  127.2032   30.1641 O   0  0  0  0  0  0  0  0  0  0  0  0
  195.6711  125.6632   30.8820 C   0  0  0  0  0  0  0  0  0  0  0  0
  195.0884  124.8011   30.0303 C   0  0  0  0  0  0  0  0  0  0  0  0
  195.9018  124.0922   28.9969 C   0  0  0  0  0  0  0  0  0  0  0  0
  193.6153  124.4973   30.1229 C   0  0  0  0  0  0  0  0  0  0  0  0
  193.1272  124.2667   31.5602 C   0  0  0  0  0  0  0  0  0  0  0  0
  191.9044  123.3849   31.6048 C   0  0  0  0  0  0  0  0  0  0  0  0
  191.0852  123.3105   32.6728 C   0  0  0  0  0  0  0  0  0  0  0  0
  191.3655  124.1040   33.9154 C   0  0  0  0  0  0  0  0  0  0  0  0
  189.8892  122.3974   32.6791 C   0  0  0  0  0  0  0  0  0  0  0  0
  188.7613  122.9234   31.7930 C   0  0  0  0  0  0  0  0  0  0  0  0
  187.5076  122.1029   31.9580 C   0  0  0  0  0  0  0  0  0  0  0  0
  186.3407  122.3788   31.3507 C   0  0  0  0  0  0  0  0  0  0  0  0
  186.2000  123.5499   30.4217 C   0  0  0  0  0  0  0  0  0  0  0  0
  185.1279  121.5267   31.5685 C   0  0  0  0  0  0  0  0  0  0  0  0
  197.7462  125.2063   30.4132 H   0  0  0  0  0  0  0  0  0  0  0  0
  198.2713  127.3988   30.4284 H   0  0  0  0  0  0  0  0  0  0  0  0
  195.1048  126.1671   31.6616 H   0  0  0  0  0  0  0  0  0  0  0  0
  195.3003  123.4310   28.3808 H   0  0  0  0  0  0  0  0  0  0  0  0
  196.6851  123.4788   29.4682 H   0  0  0  0  0  0  0  0  0  0  0  0
  196.3876  124.8237   28.3382 H   0  0  0  0  0  0  0  0  0  0  0  0
  193.3932  123.6200   29.5162 H   0  0  0  0  0  0  0  0  0  0  0  0
  193.0638  125.3392   29.6809 H   0  0  0  0  0  0  0  0  0  0  0  0
  192.9027  125.2412   32.0149 H   0  0  0  0  0  0  0  0  0  0  0  0
  193.9144  123.7949   32.1617 H   0  0  0  0  0  0  0  0  0  0  0  0
  191.7006  122.7738   30.7310 H   0  0  0  0  0  0  0  0  0  0  0  0
  190.6202  123.9329   34.6863 H   0  0  0  0  0  0  0  0  0  0  0  0
  191.3670  125.1775   33.6882 H   0  0  0  0  0  0  0  0  0  0  0  0
  192.3478  123.8323   34.3271 H   0  0  0  0  0  0  0  0  0  0  0  0
  189.5188  122.2703   33.7030 H   0  0  0  0  0  0  0  0  0  0  0  0
  190.1804  121.3958   32.3341 H   0  0  0  0  0  0  0  0  0  0  0  0
  189.0786  122.8897   30.7419 H   0  0  0  0  0  0  0  0  0  0  0  0
  188.5541  123.9702   32.0518 H   0  0  0  0  0  0  0  0  0  0  0  0
  187.5686  121.2412   32.6219 H   0  0  0  0  0  0  0  0  0  0  0  0
  185.1830  123.6211   30.0224 H   0  0  0  0  0  0  0  0  0  0  0  0
  186.8854  123.4502   29.5735 H   0  0  0  0  0  0  0  0  0  0  0  0
  186.4174  124.4860   30.9458 H   0  0  0  0  0  0  0  0  0  0  0  0
  185.3296  120.7040   32.2642 H   0  0  0  0  0  0  0  0  0  0  0  0
  184.7927  121.0877   30.6237 H   0  0  0  0  0  0  0  0  0  0  0  0
  184.3100  122.1210   31.9886 H   0  0  0  0  0  0  0  0  0  0  0  0
  1  5  1  0  0  0  0
  1  4  2  0  0  0  0
  1  3  1  0  0  0  0
  1  2  1  0  0  0  0
  5  7  1  0  0  0  0
  5  6  1  0  0  0  0
  5 21  1  6  0  0  0
  6 22  1  0  0  0  0
  7  8  2  0  0  0  0
  7 23  1  0  0  0  0
  8 10  1  0  0  0  0
  8  9  1  0  0  0  0
  9 24  1  0  0  0  0
  9 25  1  0  0  0  0
  9 26  1  0  0  0  0
 10 11  1  0  0  0  0
 10 27  1  0  0  0  0
 10 28  1  0  0  0  0
 11 12  1  0  0  0  0
 11 29  1  0  0  0  0
 11 30  1  0  0  0  0
 12 13  2  0  0  0  0
 12 31  1  0  0  0  0
 13 15  1  0  0  0  0
 13 14  1  0  0  0  0
 14 32  1  0  0  0  0
 14 33  1  0  0  0  0
 14 34  1  0  0  0  0
 15 16  1  0  0  0  0
 15 35  1  0  0  0  0
 15 36  1  0  0  0  0
 16 17  1  0  0  0  0
 16 37  1  0  0  0  0
 16 38  1  0  0  0  0
 17 18  2  0  0  0  0
 17 39  1  0  0  0  0
 18 20  1  0  0  0  0
 18 19  1  0  0  0  0
 19 40  1  0  0  0  0
 19 41  1  0  0  0  0
 19 42  1  0  0  0  0
 20 43  1  0  0  0  0
 20 44  1  0  0  0  0
 20 45  1  0  0  0  0
M  END
$$$$
