HNA
 OpenBabel04041915403D

 26 28  0  0  0  0  0  0  0  0999 V2000
   25.4963    3.5282   18.0131 C   0  0  0  0  0  0  0  0  0  0  0  0
   24.7334    4.7614   17.8707 C   0  0  0  0  0  0  0  0  0  0  0  0
   23.9907    5.2721   18.9547 C   0  0  0  0  0  0  0  0  0  0  0  0
   24.0048    4.5605   20.1698 C   0  0  0  0  0  0  0  0  0  0  0  0
   24.7270    3.3807   20.3362 C   0  0  0  0  0  0  0  0  0  0  0  0
   25.4506    2.8942   19.2663 C   0  0  0  0  0  0  0  0  0  0  0  0
   23.2243    6.5321   18.7969 C   0  0  0  0  0  0  0  0  0  0  0  0
   23.2107    7.2622   17.5038 C   0  0  0  0  0  0  0  0  0  0  0  0
   23.9171    6.7949   16.3841 C   0  0  0  0  0  0  0  0  0  0  0  0
   24.7076    5.5147   16.5458 C   0  0  0  0  0  0  0  0  0  0  0  0
   23.8694    7.5253   15.1291 C   0  0  0  0  0  0  0  0  0  0  0  0
   23.0998    8.7058   15.1303 C   0  0  0  0  0  0  0  0  0  0  0  0
   22.4098    9.1762   16.2398 C   0  0  0  0  0  0  0  0  0  0  0  0
   22.4635    8.4547   17.4230 C   0  0  0  0  0  0  0  0  0  0  0  0
   25.3337    5.0795   15.5910 O   0  0  0  0  0  0  0  0  0  0  0  0
   22.5948    6.9854   19.7465 O   0  0  0  0  0  0  0  0  0  0  0  0
   26.2062    2.9512   17.1242 O   0  0  0  0  0  0  0  0  0  0  0  0
   24.4427    7.2183   14.0292 O   0  0  0  0  0  0  0  0  0  0  0  0
   23.2522    4.9610   21.3426 N   0  0  0  0  0  0  0  0  0  0  0  0
   22.1051    4.5008   21.4604 O   0  0  0  0  0  0  0  0  0  0  0  0
   23.8721    5.5606   22.2366 O   0  0  0  0  0  0  0  0  0  0  0  0
   24.7374    2.8229   21.2661 H   0  0  0  0  0  0  0  0  0  0  0  0
   26.0176    1.9685   19.3770 H   0  0  0  0  0  0  0  0  0  0  0  0
   23.0583    9.2706   14.1959 H   0  0  0  0  0  0  0  0  0  0  0  0
   21.8464   10.0970   16.1518 H   0  0  0  0  0  0  0  0  0  0  0  0
   21.9168    8.8319   18.2838 H   0  0  0  0  0  0  0  0  0  0  0  0
  1  2  2  0  0  0  0
  1  6  1  0  0  0  0
  1 17  1  0  0  0  0
  2  3  1  0  0  0  0
  2 10  1  0  0  0  0
  3  4  2  0  0  0  0
  3  7  1  0  0  0  0
  4  5  1  0  0  0  0
  4 19  1  0  0  0  0
  5  6  2  0  0  0  0
  5 22  1  0  0  0  0
  6 23  1  0  0  0  0
  7  8  1  0  0  0  0
  7 16  2  0  0  0  0
  8  9  2  0  0  0  0
  8 14  1  0  0  0  0
  9 10  1  0  0  0  0
  9 11  1  0  0  0  0
 10 15  2  0  0  0  0
 11 12  2  0  0  0  0
 11 18  1  0  0  0  0
 12 13  1  0  0  0  0
 12 24  1  0  0  0  0
 13 14  2  0  0  0  0
 13 25  1  0  0  0  0
 14 26  1  0  0  0  0
 19 20  2  0  0  0  0
 19 21  2  0  0  0  0
M  END
$$$$
