HUX
 OpenBabel04041914233D

 41 44  0  0  1  0  0  0  0  0999 V2000
    5.8888   69.5744   65.3300 N   0  3  0  0  0  0  0  0  0  0  0  0
    1.8854   69.5659   66.4100 N   0  0  0  0  0  0  0  0  0  0  0  0
    6.3071   70.6232   68.7953 C   0  0  0  0  0  0  0  0  0  0  0  0
    6.6093   70.2891   67.4770 C   0  0  0  0  0  0  0  0  0  0  0  0
    5.5803   69.9312   66.5914 C   0  0  0  0  0  0  0  0  0  0  0  0
    4.9880   69.1612   64.4211 C   0  0  0  0  0  0  0  0  0  0  0  0
    5.4959   68.7301   63.0643 C   0  0  0  0  0  0  0  0  0  0  0  0
    4.5020   67.8214   62.3219 C   0  0  1  0  0  0  0  0  0  0  0  0
    4.3830   66.4540   62.9721 C   0  0  0  0  0  0  0  0  0  0  0  0
    3.3878   66.0964   63.8039 C   0  0  0  0  0  0  0  0  0  0  0  0
    2.2896   67.0986   64.1690 C   0  0  0  0  0  0  0  0  0  0  0  0
    4.3534   63.6914   64.1270 C   0  0  0  0  0  0  0  0  0  0  0  0
    2.6207   68.5602   63.7552 C   0  0  2  0  0  0  0  0  0  0  0  0
    3.1539   68.5398   62.3123 C   0  0  0  0  0  0  0  0  0  0  0  0
    3.6250   69.1401   64.7624 C   0  0  0  0  0  0  0  0  0  0  0  0
    3.2367   69.5047   66.0738 C   0  0  0  0  0  0  0  0  0  0  0  0
    4.2279   69.9167   67.0074 C   0  0  0  0  0  0  0  0  0  0  0  0
    3.9672   70.2878   68.3520 C   0  0  0  0  0  0  0  0  0  0  0  0
    4.9956   70.6272   69.2381 C   0  0  0  0  0  0  0  0  0  0  0  0
    3.2585   64.7147   64.4439 C   0  0  0  0  0  0  0  0  0  0  0  0
    7.5809   71.0109   69.8850 Cl  0  0  0  0  0  0  0  0  0  0  0  0
    1.1779   69.1546   65.8127 H   0  0  0  0  0  0  0  0  0  0  0  0
    1.5927   69.6559   67.3758 H   0  0  0  0  0  0  0  0  0  0  0  0
    7.6484   70.2940   67.1600 H   0  0  0  0  0  0  0  0  0  0  0  0
    6.4694   68.2312   63.1732 H   0  0  0  0  0  0  0  0  0  0  0  0
    5.6677   69.6343   62.4838 H   0  0  0  0  0  0  0  0  0  0  0  0
    4.8454   67.6792   61.2873 H   0  0  0  0  0  0  0  0  0  0  0  0
    5.1509   65.7350   62.6953 H   0  0  0  0  0  0  0  0  0  0  0  0
    2.1008   67.0478   65.2483 H   0  0  0  0  0  0  0  0  0  0  0  0
    1.3594   66.7960   63.6703 H   0  0  0  0  0  0  0  0  0  0  0  0
    4.1581   62.7484   64.6503 H   0  0  0  0  0  0  0  0  0  0  0  0
    5.3385   64.0448   64.4485 H   0  0  0  0  0  0  0  0  0  0  0  0
    4.3953   63.4670   63.0563 H   0  0  0  0  0  0  0  0  0  0  0  0
    1.7148   69.1796   63.7580 H   0  0  0  0  0  0  0  0  0  0  0  0
    2.4496   68.0220   61.6483 H   0  0  0  0  0  0  0  0  0  0  0  0
    3.2690   69.5557   61.9126 H   0  0  0  0  0  0  0  0  0  0  0  0
    2.9524   70.3008   68.7463 H   0  0  0  0  0  0  0  0  0  0  0  0
    4.7570   70.8918   70.2689 H   0  0  0  0  0  0  0  0  0  0  0  0
    2.2960   64.2775   64.1511 H   0  0  0  0  0  0  0  0  0  0  0  0
    3.2293   64.8371   65.5349 H   0  0  0  0  0  0  0  0  0  0  0  0
    6.8712   69.5926   65.0546 H   0  0  0  0  0  0  0  0  0  0  0  0
  1  5  2  0  0  0  0
  1  6  1  0  0  0  0
  1 41  1  0  0  0  0
  2 16  1  0  0  0  0
  2 22  1  0  0  0  0
  2 23  1  0  0  0  0
  3  4  2  0  0  0  0
  3 19  1  0  0  0  0
  3 21  1  0  0  0  0
  4  5  1  0  0  0  0
  4 24  1  0  0  0  0
  5 17  1  0  0  0  0
  6 15  2  0  0  0  0
  6  7  1  0  0  0  0
  7  8  1  0  0  0  0
  7 25  1  0  0  0  0
  7 26  1  0  0  0  0
  8 14  1  0  0  0  0
  8  9  1  0  0  0  0
  8 27  1  6  0  0  0
  9 10  2  0  0  0  0
  9 28  1  0  0  0  0
 10 20  1  0  0  0  0
 10 11  1  0  0  0  0
 11 13  1  0  0  0  0
 11 29  1  0  0  0  0
 11 30  1  0  0  0  0
 12 20  1  0  0  0  0
 12 31  1  0  0  0  0
 12 32  1  0  0  0  0
 12 33  1  0  0  0  0
 13 15  1  0  0  0  0
 13 14  1  0  0  0  0
 13 34  1  1  0  0  0
 14 35  1  0  0  0  0
 14 36  1  0  0  0  0
 15 16  1  0  0  0  0
 16 17  2  0  0  0  0
 17 18  1  0  0  0  0
 18 19  2  0  0  0  0
 18 37  1  0  0  0  0
 19 38  1  0  0  0  0
 20 39  1  0  0  0  0
 20 40  1  0  0  0  0
M  CHG  1   1   1
M  END
$$$$
