HYC
 OpenBabel04041915033D

100106  0  0  1  0  0  0  0  0999 V2000
    9.6007   11.4204  -11.3867 C   0  0  0  0  0  0  0  0  0  0  0  0
    8.8737   12.2316  -12.2542 C   0  0  0  0  0  0  0  0  0  0  0  0
    8.5158   11.7508  -13.5043 C   0  0  0  0  0  0  0  0  0  0  0  0
    7.7912   12.5639  -14.3143 O   0  0  0  0  0  0  0  0  0  0  0  0
    8.8992   10.4651  -13.9036 C   0  0  0  0  0  0  0  0  0  0  0  0
    9.6377    9.6424  -13.0412 C   0  0  0  0  0  0  0  0  0  0  0  0
   10.0072    8.2491  -13.5152 C   0  0  0  0  0  0  0  0  0  0  0  0
   11.0410    7.5511  -12.6329 C   0  0  0  0  0  0  0  0  0  0  0  0
   10.6323    7.7161  -11.1658 C   0  0  2  0  0  0  0  0  0  0  0  0
   10.7470    9.2195  -10.7747 C   0  0  1  0  0  0  0  0  0  0  0  0
    9.9706   10.1059  -11.7451 C   0  0  0  0  0  0  0  0  0  0  0  0
   10.3349    9.4084   -9.2940 C   0  0  0  0  0  0  0  0  0  0  0  0
   11.1031    8.5031   -8.3138 C   0  0  0  0  0  0  0  0  0  0  0  0
   11.0580    7.0274   -8.7352 C   0  0  1  0  0  0  0  0  0  0  0  0
   11.4934    6.8951  -10.2143 C   0  0  1  0  0  0  0  0  0  0  0  0
   11.5582    5.3877  -10.3765 C   0  0  0  0  0  0  0  0  0  0  0  0
   12.3533    4.9922   -9.1023 C   0  0  1  0  0  0  0  0  0  0  0  0
   12.1150    6.1206   -8.0624 C   0  0  2  0  0  0  0  0  0  0  0  0
   11.6997    5.6242   -6.8017 O   0  0  0  0  0  0  0  0  0  0  0  0
    9.6320    6.4655   -8.4586 C   0  0  0  0  0  0  0  0  0  0  0  0
   11.9779    3.6148   -8.5994 C   0  0  0  0  0  0  0  0  0  0  0  0
   12.2667    2.6129   -9.6986 C   0  0  0  0  0  0  0  0  0  0  0  0
   11.8852    1.2252   -9.2732 C   0  0  0  0  0  0  0  0  0  0  0  0
   13.0051    0.6767   -8.4233 C   0  0  0  0  0  0  0  0  0  0  0  0
   12.8834   -0.8161   -8.4253 C   0  0  0  0  0  0  0  0  0  0  0  0
   13.9706   -1.3919   -7.5597 C   0  0  0  0  0  0  0  0  0  0  0  0
   13.2711   -2.2666   -6.5437 C   0  0  0  0  0  0  0  0  0  0  0  0
   14.3020   -3.0035   -5.7539 C   0  0  0  0  0  0  0  0  0  0  0  0
   16.1925   -6.2615   -1.9512 C   0  0  1  0  0  0  0  0  0  0  0  0
   16.8207   -6.2146   -3.3317 C   0  0  2  0  0  0  0  0  0  0  0  0
   17.5914   -7.3622   -3.6683 O   0  0  0  0  0  0  0  0  0  0  0  0
   17.6469   -4.9366   -3.1982 C   0  0  2  0  0  0  0  0  0  0  0  0
   18.9374   -5.2412   -2.6611 O   0  0  0  0  0  0  0  0  0  0  0  0
   16.8421   -4.0865   -2.1791 C   0  0  2  0  0  0  0  0  0  0  0  0
   15.7361   -4.9235   -1.7383 O   0  0  0  0  0  0  0  0  0  0  0  0
   16.2516   -2.7989   -2.7343 C   0  0  0  0  0  0  0  0  0  0  0  0
   15.6831   -3.1482   -3.9856 O   0  0  0  0  0  0  0  0  0  0  0  0
   14.7165   -2.3216   -4.4848 C   0  0  0  0  0  0  0  0  0  0  0  0
   14.3251   -1.2954   -4.0098 O   0  0  0  0  0  0  0  0  0  0  0  0
   14.0005   -9.5663    1.2245 N   0  0  0  0  0  0  0  0  0  0  0  0
   15.0513   -8.7224    1.3786 C   0  0  0  0  0  0  0  0  0  0  0  0
   15.5627   -7.8572    0.4850 N   0  0  0  0  0  0  0  0  0  0  0  0
   14.8755   -7.9119   -0.6728 C   0  0  0  0  0  0  0  0  0  0  0  0
   13.8029   -8.7244   -0.9788 C   0  0  0  0  0  0  0  0  0  0  0  0
   13.3621   -9.5817    0.0313 C   0  0  0  0  0  0  0  0  0  0  0  0
   12.3057  -10.4394   -0.1709 N   0  0  0  0  0  0  0  0  0  0  0  0
   13.3911   -8.5228   -2.2829 N   0  0  0  0  0  0  0  0  0  0  0  0
   14.1875   -7.5848   -2.7484 C   0  0  0  0  0  0  0  0  0  0  0  0
   15.0929   -7.1831   -1.8071 N   0  3  0  0  0  0  0  0  0  0  0  0
    9.8704   11.8383  -10.4206 H   0  0  0  0  0  0  0  0  0  0  0  0
    8.5821   13.2292  -11.9512 H   0  0  0  0  0  0  0  0  0  0  0  0
    7.6199   12.0866  -15.1512 H   0  0  0  0  0  0  0  0  0  0  0  0
    8.6037   10.0913  -14.8796 H   0  0  0  0  0  0  0  0  0  0  0  0
   10.3861    8.2941  -14.5417 H   0  0  0  0  0  0  0  0  0  0  0  0
    9.0956    7.6440  -13.5305 H   0  0  0  0  0  0  0  0  0  0  0  0
   12.0381    7.9758  -12.8069 H   0  0  0  0  0  0  0  0  0  0  0  0
   11.0979    6.4940  -12.9144 H   0  0  0  0  0  0  0  0  0  0  0  0
    9.5866    7.3966  -11.0720 H   0  0  0  0  0  0  0  0  0  0  0  0
   11.8020    9.5233  -10.8679 H   0  0  0  0  0  0  0  0  0  0  0  0
    9.2569    9.2304   -9.2003 H   0  0  0  0  0  0  0  0  0  0  0  0
   10.4964   10.4433   -8.9752 H   0  0  0  0  0  0  0  0  0  0  0  0
   10.6763    8.6287   -7.3108 H   0  0  0  0  0  0  0  0  0  0  0  0
   12.1398    8.8579   -8.2521 H   0  0  0  0  0  0  0  0  0  0  0  0
   12.5287    7.2571  -10.3235 H   0  0  0  0  0  0  0  0  0  0  0  0
   12.0411    5.0586  -11.3012 H   0  0  0  0  0  0  0  0  0  0  0  0
   10.5657    4.9190  -10.3910 H   0  0  0  0  0  0  0  0  0  0  0  0
   13.4197    4.9919   -9.3747 H   0  0  0  0  0  0  0  0  0  0  0  0
   13.0661    6.6441   -7.8998 H   0  0  0  0  0  0  0  0  0  0  0  0
   11.4945    6.3858   -6.2349 H   0  0  0  0  0  0  0  0  0  0  0  0
    8.8501    7.0891   -8.8946 H   0  0  0  0  0  0  0  0  0  0  0  0
    9.4302    6.3838   -7.3857 H   0  0  0  0  0  0  0  0  0  0  0  0
    9.4796    5.4604   -8.8577 H   0  0  0  0  0  0  0  0  0  0  0  0
   10.9154    3.5827   -8.3300 H   0  0  0  0  0  0  0  0  0  0  0  0
   12.5461    3.3770   -7.6903 H   0  0  0  0  0  0  0  0  0  0  0  0
   13.3330    2.6583   -9.9575 H   0  0  0  0  0  0  0  0  0  0  0  0
   11.7105    2.8513  -10.6061 H   0  0  0  0  0  0  0  0  0  0  0  0
   11.7442    0.6098  -10.1681 H   0  0  0  0  0  0  0  0  0  0  0  0
   10.9378    1.2068   -8.7184 H   0  0  0  0  0  0  0  0  0  0  0  0
   12.9407    1.0733   -7.4012 H   0  0  0  0  0  0  0  0  0  0  0  0
   13.9898    0.9541   -8.8186 H   0  0  0  0  0  0  0  0  0  0  0  0
   12.9695   -1.2192   -9.4403 H   0  0  0  0  0  0  0  0  0  0  0  0
   11.8827   -1.0818   -8.0614 H   0  0  0  0  0  0  0  0  0  0  0  0
   14.5765   -0.6266   -7.0547 H   0  0  0  0  0  0  0  0  0  0  0  0
   14.6606   -1.9758   -8.1820 H   0  0  0  0  0  0  0  0  0  0  0  0
   12.6551   -2.9941   -7.0865 H   0  0  0  0  0  0  0  0  0  0  0  0
   12.5965   -1.6605   -5.9241 H   0  0  0  0  0  0  0  0  0  0  0  0
   15.2115   -3.1311   -6.3539 H   0  0  0  0  0  0  0  0  0  0  0  0
   13.9031   -3.9875   -5.4930 H   0  0  0  0  0  0  0  0  0  0  0  0
   16.9373   -6.5007   -1.1811 H   0  0  0  0  0  0  0  0  0  0  0  0
   16.0696   -6.0593   -4.1141 H   0  0  0  0  0  0  0  0  0  0  0  0
   16.9855   -8.1307   -3.6693 H   0  0  0  0  0  0  0  0  0  0  0  0
   17.8129   -4.4565   -4.1669 H   0  0  0  0  0  0  0  0  0  0  0  0
   19.3086   -5.9344   -3.2442 H   0  0  0  0  0  0  0  0  0  0  0  0
   17.4363   -3.8595   -1.2894 H   0  0  0  0  0  0  0  0  0  0  0  0
   17.0250   -2.0457   -2.9060 H   0  0  0  0  0  0  0  0  0  0  0  0
   15.4799   -2.4102   -2.0621 H   0  0  0  0  0  0  0  0  0  0  0  0
   15.5489   -8.7481    2.3454 H   0  0  0  0  0  0  0  0  0  0  0  0
   11.8229  -10.3745   -1.0517 H   0  0  0  0  0  0  0  0  0  0  0  0
   11.9648  -10.9856    0.5932 H   0  0  0  0  0  0  0  0  0  0  0  0
   14.1462   -7.1912   -3.7548 H   0  0  0  0  0  0  0  0  0  0  0  0
  1  2  2  0  0  0  0
  1 11  1  0  0  0  0
  1 50  1  0  0  0  0
  2  3  1  0  0  0  0
  2 51  1  0  0  0  0
  3  4  1  0  0  0  0
  3  5  2  0  0  0  0
  4 52  1  0  0  0  0
  5  6  1  0  0  0  0
  5 53  1  0  0  0  0
  6  7  1  0  0  0  0
  6 11  2  0  0  0  0
  7  8  1  0  0  0  0
  7 54  1  0  0  0  0
  7 55  1  0  0  0  0
  8  9  1  0  0  0  0
  8 56  1  0  0  0  0
  8 57  1  0  0  0  0
  9 10  1  0  0  0  0
  9 15  1  0  0  0  0
  9 58  1  1  0  0  0
 10 11  1  0  0  0  0
 10 12  1  0  0  0  0
 10 59  1  6  0  0  0
 12 13  1  0  0  0  0
 12 60  1  0  0  0  0
 12 61  1  0  0  0  0
 13 14  1  0  0  0  0
 13 62  1  0  0  0  0
 13 63  1  0  0  0  0
 14 15  1  0  0  0  0
 14 18  1  0  0  0  0
 14 20  1  1  0  0  0
 15 16  1  0  0  0  0
 15 64  1  6  0  0  0
 16 17  1  0  0  0  0
 16 65  1  0  0  0  0
 16 66  1  0  0  0  0
 17 18  1  0  0  0  0
 17 21  1  0  0  0  0
 17 67  1  6  0  0  0
 18 19  1  0  0  0  0
 18 68  1  1  0  0  0
 19 69  1  0  0  0  0
 20 70  1  0  0  0  0
 20 71  1  0  0  0  0
 20 72  1  0  0  0  0
 21 22  1  0  0  0  0
 21 73  1  0  0  0  0
 21 74  1  0  0  0  0
 22 23  1  0  0  0  0
 22 75  1  0  0  0  0
 22 76  1  0  0  0  0
 23 24  1  0  0  0  0
 23 77  1  0  0  0  0
 23 78  1  0  0  0  0
 24 25  1  0  0  0  0
 24 79  1  0  0  0  0
 24 80  1  0  0  0  0
 25 26  1  0  0  0  0
 25 81  1  0  0  0  0
 25 82  1  0  0  0  0
 26 27  1  0  0  0  0
 26 83  1  0  0  0  0
 26 84  1  0  0  0  0
 27 28  1  0  0  0  0
 27 85  1  0  0  0  0
 27 86  1  0  0  0  0
 28 38  1  0  0  0  0
 28 87  1  0  0  0  0
 28 88  1  0  0  0  0
 29 30  1  0  0  0  0
 29 35  1  0  0  0  0
 29 49  1  0  0  0  0
 29 89  1  1  0  0  0
 30 31  1  0  0  0  0
 30 32  1  0  0  0  0
 30 90  1  6  0  0  0
 31 91  1  0  0  0  0
 32 33  1  0  0  0  0
 32 34  1  0  0  0  0
 32 92  1  6  0  0  0
 33 93  1  0  0  0  0
 34 35  1  0  0  0  0
 34 36  1  0  0  0  0
 34 94  1  1  0  0  0
 36 37  1  0  0  0  0
 36 95  1  0  0  0  0
 36 96  1  0  0  0  0
 37 38  1  0  0  0  0
 38 39  2  0  0  0  0
 40 41  2  0  0  0  0
 40 45  1  0  0  0  0
 41 42  1  0  0  0  0
 41 97  1  0  0  0  0
 42 43  2  0  0  0  0
 43 44  1  0  0  0  0
 43 49  1  0  0  0  0
 44 45  2  0  0  0  0
 44 47  1  0  0  0  0
 45 46  1  0  0  0  0
 46 98  1  0  0  0  0
 46 99  1  0  0  0  0
 47 48  1  0  0  0  0
 48 49  2  0  0  0  0
 48100  1  0  0  0  0
M  CHG  1  49   1
M  END
$$$$
