I3P
 OpenBabel04041915443D

 33 33  0  0  1  0  0  0  0  0999 V2000
   33.7604   18.0492    3.9224 C   0  0  2  0  0  0  0  0  0  0  0  0
   34.2538   18.5084    5.3028 C   0  0  1  0  0  0  0  0  0  0  0  0
   33.2041   18.2253    6.3960 C   0  0  1  0  0  0  0  0  0  0  0  0
   32.8646   16.7025    6.4774 C   0  0  2  0  0  0  0  0  0  0  0  0
   32.3582   16.2164    5.0822 C   0  0  1  0  0  0  0  0  0  0  0  0
   33.4268   16.5359    3.9841 C   0  0  1  0  0  0  0  0  0  0  0  0
   34.7691   18.2657    2.9302 O   0  0  0  0  0  0  0  0  0  0  0  0
   35.5171   17.8539    5.6467 O   0  0  0  0  0  0  0  0  0  0  0  0
   33.6897   18.7568    7.6622 O   0  0  0  0  0  0  0  0  0  0  0  0
   31.8863   16.5245    7.5078 O   0  0  0  0  0  0  0  0  0  0  0  0
   32.2049   14.7865    5.1436 O   0  0  0  0  0  0  0  0  0  0  0  0
   33.0092   16.0873    2.6748 O   0  0  0  0  0  0  0  0  0  0  0  0
   35.0055   19.7243    2.2217 P   0  0  0  0  0  0  0  0  0  0  0  0
   36.2823   19.5303    1.4192 O   0  0  0  0  0  0  0  0  0  0  0  0
   35.1529   20.7307    3.3556 O   0  0  0  0  0  0  0  0  0  0  0  0
   33.7906   19.9803    1.3430 O   0  0  0  0  0  0  0  0  0  0  0  0
   32.3262   15.8593    8.9406 P   0  0  0  0  0  0  0  0  0  0  0  0
   33.3089   14.7303    8.6788 O   0  0  0  0  0  0  0  0  0  0  0  0
   32.9713   17.0552    9.6699 O   0  0  0  0  0  0  0  0  0  0  0  0
   31.0244   15.4318    9.6321 O   0  0  0  0  0  0  0  0  0  0  0  0
   30.9780   14.0319    4.4507 P   0  0  0  0  0  0  0  0  0  0  0  0
   31.0975   12.5659    4.8404 O   0  0  0  0  0  0  0  0  0  0  0  0
   29.6664   14.6871    4.9162 O   0  0  0  0  0  0  0  0  0  0  0  0
   31.2129   14.2111    2.9573 O   0  0  0  0  0  0  0  0  0  0  0  0
   32.8569   18.6052    3.6453 H   0  0  0  0  0  0  0  0  0  0  0  0
   34.4716   19.5769    5.3098 H   0  0  0  0  0  0  0  0  0  0  0  0
   32.2886   18.7898    6.1961 H   0  0  0  0  0  0  0  0  0  0  0  0
   33.7700   16.1575    6.7432 H   0  0  0  0  0  0  0  0  0  0  0  0
   31.3990   16.6866    4.8374 H   0  0  0  0  0  0  0  0  0  0  0  0
   34.3290   15.9649    4.2000 H   0  0  0  0  0  0  0  0  0  0  0  0
   35.6471   18.1452    6.5734 H   0  0  0  0  0  0  0  0  0  0  0  0
   33.1604   18.2707    8.3595 H   0  0  0  0  0  0  0  0  0  0  0  0
   32.5672   15.2085    2.8151 H   0  0  0  0  0  0  0  0  0  0  0  0
  1  7  1  0  0  0  0
  1  6  1  0  0  0  0
  1  2  1  0  0  0  0
  1 25  1  6  0  0  0
  2  8  1  0  0  0  0
  2  3  1  0  0  0  0
  2 26  1  6  0  0  0
  3  9  1  0  0  0  0
  3  4  1  0  0  0  0
  3 27  1  6  0  0  0
  4 10  1  0  0  0  0
  4  5  1  0  0  0  0
  4 28  1  1  0  0  0
  5 11  1  0  0  0  0
  5  6  1  0  0  0  0
  5 29  1  6  0  0  0
  6 12  1  0  0  0  0
  6 30  1  1  0  0  0
  7 13  1  0  0  0  0
  8 31  1  0  0  0  0
  9 32  1  0  0  0  0
 10 17  1  0  0  0  0
 11 21  1  0  0  0  0
 12 33  1  0  0  0  0
 13 16  2  0  0  0  0
 13 15  1  0  0  0  0
 13 14  1  0  0  0  0
 17 20  2  0  0  0  0
 17 19  1  0  0  0  0
 17 18  1  0  0  0  0
 21 24  2  0  0  0  0
 21 23  1  0  0  0  0
 21 22  1  0  0  0  0
M  END
$$$$
