IBC
 OpenBabel04041917343D

 31 32  0  0  1  0  0  0  0  0999 V2000
   14.5204    6.1473   25.6882 O   0  0  0  0  0  0  0  0  0  0  0  0
   13.3864    6.5242   25.3347 C   0  0  0  0  0  0  0  0  0  0  0  0
   12.2977    6.6835   25.9726 O   0  0  0  0  0  0  0  0  0  0  0  0
   13.1822    6.8537   23.8216 C   0  0  1  0  0  0  0  0  0  0  0  0
   11.7225    7.1805   23.5153 N   0  3  0  0  0  0  0  0  0  0  0  0
   14.0744    8.0432   23.4448 C   0  0  0  0  0  0  0  0  0  0  0  0
   13.8268    8.6220   22.0461 C   0  0  0  0  0  0  0  0  0  0  0  0
   14.1160    7.7975   20.8844 C   0  0  0  0  0  0  0  0  0  0  0  0
   13.3860    9.8946   21.9552 C   0  0  0  0  0  0  0  0  0  0  0  0
   13.0864   10.6955   20.7237 C   0  0  0  0  0  0  0  0  0  0  0  0
   12.1574    9.9909   19.7465 C   0  0  0  0  0  0  0  0  0  0  0  0
   12.8173    8.8845   18.9265 C   0  0  0  0  0  0  0  0  0  0  0  0
   13.7041    7.8889   19.6093 C   0  0  0  0  0  0  0  0  0  0  0  0
   14.1634    6.8919   18.7504 O   0  0  0  0  0  0  0  0  0  0  0  0
   14.9406    6.0857   19.5953 N   0  3  0  0  0  0  0  0  0  0  0  0
   14.9703    6.5785   20.8616 C   0  0  0  0  0  0  0  0  0  0  0  0
   15.5558    6.0887   21.8064 O   0  0  0  0  0  0  0  0  0  0  0  0
   13.4035    5.9642   23.2312 H   0  0  0  0  0  0  0  0  0  0  0  0
   11.5401    7.4179   22.5425 H   0  0  0  0  0  0  0  0  0  0  0  0
   11.1736    6.3720   23.8356 H   0  0  0  0  0  0  0  0  0  0  0  0
   15.1310    7.7686   23.5489 H   0  0  0  0  0  0  0  0  0  0  0  0
   13.9335    8.8337   24.1980 H   0  0  0  0  0  0  0  0  0  0  0  0
   13.2352   10.4549   22.8802 H   0  0  0  0  0  0  0  0  0  0  0  0
   14.0163   11.0100   20.2370 H   0  0  0  0  0  0  0  0  0  0  0  0
   12.5871   11.6176   21.0491 H   0  0  0  0  0  0  0  0  0  0  0  0
   11.7651   10.7377   19.0430 H   0  0  0  0  0  0  0  0  0  0  0  0
   11.2814    9.5929   20.2749 H   0  0  0  0  0  0  0  0  0  0  0  0
   13.4028    9.3568   18.1227 H   0  0  0  0  0  0  0  0  0  0  0  0
   12.0154    8.3351   18.4244 H   0  0  0  0  0  0  0  0  0  0  0  0
   15.4336    5.2783   19.2445 H   0  0  0  0  0  0  0  0  0  0  0  0
   11.4387    7.9215   24.1715 H   0  0  0  0  0  0  0  0  0  0  0  0
  1  2  2  0  0  0  0
  2  3  1  0  0  0  0
  2  4  1  0  0  0  0
  4  5  1  0  0  0  0
  4  6  1  0  0  0  0
  4 18  1  6  0  0  0
  5 19  1  0  0  0  0
  5 20  1  0  0  0  0
  5 31  1  0  0  0  0
  6  7  1  0  0  0  0
  6 21  1  0  0  0  0
  6 22  1  0  0  0  0
  7  8  1  0  0  0  0
  7  9  2  0  0  0  0
  8 13  2  0  0  0  0
  8 16  1  0  0  0  0
  9 10  1  0  0  0  0
  9 23  1  0  0  0  0
 10 11  1  0  0  0  0
 10 24  1  0  0  0  0
 10 25  1  0  0  0  0
 11 12  1  0  0  0  0
 11 26  1  0  0  0  0
 11 27  1  0  0  0  0
 12 13  1  0  0  0  0
 12 28  1  0  0  0  0
 12 29  1  0  0  0  0
 13 14  1  0  0  0  0
 14 15  1  0  0  0  0
 15 16  1  0  0  0  0
 15 30  1  0  0  0  0
 16 17  2  0  0  0  0
M  CHG  2   5   1  15   1
M  END
$$$$
