ICT
 OpenBabel04041914513D

 18 17  0  0  1  0  0  0  0  0999 V2000
   85.3297   67.5094    3.4870 C   0  0  0  0  0  0  0  0  0  0  0  0
   86.0230   66.8130    4.2963 O   0  0  0  0  0  0  0  0  0  0  0  0
   84.8642   68.6843    3.6927 O   0  0  0  0  0  0  0  0  0  0  0  0
   85.2257   66.9743    2.0135 C   0  0  2  0  0  0  0  0  0  0  0  0
   84.9062   68.0574    1.0877 O   0  0  0  0  0  0  0  0  0  0  0  0
   84.2633   65.7902    1.8308 C   0  0  2  0  0  0  0  0  0  0  0  0
   84.3357   65.2129    0.3974 C   0  0  0  0  0  0  0  0  0  0  0  0
   85.2318   63.9817    0.2396 C   0  0  0  0  0  0  0  0  0  0  0  0
   86.2420   64.1221   -0.5276 O   0  0  0  0  0  0  0  0  0  0  0  0
   84.8231   62.9113    0.7832 O   0  0  0  0  0  0  0  0  0  0  0  0
   82.8216   66.2056    2.2249 C   0  0  0  0  0  0  0  0  0  0  0  0
   82.5248   66.1254    3.4519 O   0  0  0  0  0  0  0  0  0  0  0  0
   82.0496   66.5770    1.2863 O   0  0  0  0  0  0  0  0  0  0  0  0
   86.2372   66.6585    1.7348 H   0  0  0  0  0  0  0  0  0  0  0  0
   84.0602   68.3863    1.4514 H   0  0  0  0  0  0  0  0  0  0  0  0
   84.5643   65.0064    2.5395 H   0  0  0  0  0  0  0  0  0  0  0  0
   84.6571   65.9830   -0.3175 H   0  0  0  0  0  0  0  0  0  0  0  0
   83.3376   64.8906    0.0532 H   0  0  0  0  0  0  0  0  0  0  0  0
  1  4  1  0  0  0  0
  1  3  2  0  0  0  0
  1  2  1  0  0  0  0
  4  6  1  0  0  0  0
  4  5  1  0  0  0  0
  4 14  1  6  0  0  0
  5 15  1  0  0  0  0
  6 11  1  0  0  0  0
  6  7  1  0  0  0  0
  6 16  1  1  0  0  0
  7  8  1  0  0  0  0
  7 17  1  0  0  0  0
  7 18  1  0  0  0  0
  8 10  2  0  0  0  0
  8  9  1  0  0  0  0
 11 13  2  0  0  0  0
 11 12  1  0  0  0  0
M  END
$$$$
