IDE
 OpenBabel04041917353D

 42 44  0  0  1  0  0  0  0  0999 V2000
   22.5216   26.4607   33.1223 O   0  0  0  0  0  0  0  0  0  0  0  0
   23.4071   25.3618   32.9166 C   0  0  0  0  0  0  0  0  0  0  0  0
   23.8908   24.7781   34.2611 C   0  0  2  0  0  0  0  0  0  0  0  0
   22.7152   24.1251   35.0356 C   0  0  1  0  0  0  0  0  0  0  0  0
   22.1871   23.0277   34.2939 O   0  0  0  0  0  0  0  0  0  0  0  0
   23.2058   23.6038   36.4030 C   0  0  2  0  0  0  0  0  0  0  0  0
   22.0986   22.9702   37.0588 O   0  0  0  0  0  0  0  0  0  0  0  0
   23.7560   24.7426   37.2728 C   0  0  1  0  0  0  0  0  0  0  0  0
   24.5927   24.2367   38.3137 O   0  0  0  0  0  0  0  0  0  0  0  0
   24.5585   25.7991   35.1141 N   0  3  2  0  0  0  0  0  0  0  0  0
   25.3347   26.8734   34.7096 C   0  0  0  0  0  0  0  0  0  0  0  0
   25.6824   27.5809   35.8310 C   0  0  2  0  0  0  0  0  0  0  0  0
   25.1511   26.8537   36.8911 N   0  3  0  0  0  0  0  0  0  0  0  0
   24.4782   25.7842   36.4561 C   0  0  1  0  0  0  0  0  0  0  0  0
   26.4386   28.8477   35.9434 C   0  0  0  0  0  0  0  0  0  0  0  0
   27.4770   28.7281   36.9445 N   0  0  0  0  0  0  0  0  0  0  0  0
   28.5591   29.6092   36.8655 C   0  0  0  0  0  0  0  0  0  0  0  0
   28.3686   30.9571   36.5305 C   0  0  0  0  0  0  0  0  0  0  0  0
   29.4495   31.8336   36.4433 C   0  0  0  0  0  0  0  0  0  0  0  0
   30.7492   31.3612   36.6707 C   0  0  0  0  0  0  0  0  0  0  0  0
   30.9558   30.0212   36.9731 C   0  0  0  0  0  0  0  0  0  0  0  0
   29.8617   29.1515   37.0650 C   0  0  0  0  0  0  0  0  0  0  0  0
   23.0185   27.2229   33.4599 H   0  0  0  0  0  0  0  0  0  0  0  0
   24.2550   25.7029   32.3131 H   0  0  0  0  0  0  0  0  0  0  0  0
   22.8799   24.6056   32.3260 H   0  0  0  0  0  0  0  0  0  0  0  0
   24.6443   24.0110   34.0429 H   0  0  0  0  0  0  0  0  0  0  0  0
   21.9047   24.8480   35.1869 H   0  0  0  0  0  0  0  0  0  0  0  0
   21.4678   22.6492   34.8425 H   0  0  0  0  0  0  0  0  0  0  0  0
   23.9624   22.8232   36.2499 H   0  0  0  0  0  0  0  0  0  0  0  0
   22.4071   22.6353   37.9253 H   0  0  0  0  0  0  0  0  0  0  0  0
   22.9361   25.2849   37.7579 H   0  0  0  0  0  0  0  0  0  0  0  0
   25.3461   23.7512   37.9272 H   0  0  0  0  0  0  0  0  0  0  0  0
   25.5181   27.0429   33.6597 H   0  0  0  0  0  0  0  0  0  0  0  0
   25.7354   29.6420   36.2179 H   0  0  0  0  0  0  0  0  0  0  0  0
   26.8515   29.0717   34.9514 H   0  0  0  0  0  0  0  0  0  0  0  0
   27.6567   27.8393   37.4048 H   0  0  0  0  0  0  0  0  0  0  0  0
   27.3765   31.3636   36.3658 H   0  0  0  0  0  0  0  0  0  0  0  0
   29.2875   32.8786   36.2098 H   0  0  0  0  0  0  0  0  0  0  0  0
   31.5889   32.0425   36.5964 H   0  0  0  0  0  0  0  0  0  0  0  0
   31.9555   29.6515   37.1321 H   0  0  0  0  0  0  0  0  0  0  0  0
   30.0550   28.0988   37.2774 H   0  0  0  0  0  0  0  0  0  0  0  0
   25.2483   27.1048   37.8754 H   0  0  0  0  0  0  0  0  0  0  0  0
  1  2  1  0  0  0  0
  1 23  1  0  0  0  0
  2  3  1  0  0  0  0
  2 24  1  0  0  0  0
  2 25  1  0  0  0  0
  3  4  1  0  0  0  0
  3 10  1  0  0  0  0
  3 26  1  6  0  0  0
  4  5  1  0  0  0  0
  4  6  1  0  0  0  0
  4 27  1  1  0  0  0
  5 28  1  0  0  0  0
  6  7  1  0  0  0  0
  6  8  1  0  0  0  0
  6 29  1  6  0  0  0
  7 30  1  0  0  0  0
  8  9  1  0  0  0  0
  8 14  1  0  0  0  0
  8 31  1  1  0  0  0
  9 32  1  0  0  0  0
 10 11  1  1  0  0  0
 10 14  1  0  0  0  0
 11 12  1  0  0  0  0
 11 33  1  0  0  0  0
 12 13  1  0  0  0  0
 12 15  1  6  0  0  0
 13 42  1  0  0  0  0
 14 13  1  6  0  0  0
 15 16  1  0  0  0  0
 15 34  1  0  0  0  0
 15 35  1  0  0  0  0
 16 17  1  0  0  0  0
 16 36  1  0  0  0  0
 17 18  1  0  0  0  0
 17 22  1  0  0  0  0
 18 19  1  0  0  0  0
 18 37  1  0  0  0  0
 19 20  1  0  0  0  0
 19 38  1  0  0  0  0
 20 21  1  0  0  0  0
 20 39  1  0  0  0  0
 21 22  1  0  0  0  0
 21 40  1  0  0  0  0
 22 41  1  0  0  0  0
M  CHG  2  10   1  13   1
M  END
$$$$
