IFG
 OpenBabel04041915093D

 31 31  0  0  1  0  0  0  0  0999 V2000
   -4.9036   66.0948   10.1721 N   0  3  0  0  0  0  0  0  0  0  0  0
   -5.3246   66.6004    8.8448 C   0  0  1  0  0  0  0  0  0  0  0  0
   -4.1366   66.9420    7.8922 C   0  0  2  0  0  0  0  0  0  0  0  0
   -2.9447   67.5974    8.6222 C   0  0  2  0  0  0  0  0  0  0  0  0
   -2.5067   66.6939    9.7681 C   0  0  1  0  0  0  0  0  0  0  0  0
   -1.2872   67.2156   10.5345 C   0  0  0  0  0  0  0  0  0  0  0  0
   -5.8309   64.3139    8.0897 C   0  0  0  0  0  0  0  0  0  0  0  0
   -6.6788   63.3043    7.3965 C   0  0  0  0  0  0  0  0  0  0  0  0
   -3.6314   66.5332   10.7791 C   0  0  0  0  0  0  0  0  0  0  0  0
   -6.2335   65.6164    8.2664 N   0  0  0  0  0  0  0  0  0  0  0  0
   -4.7655   63.9641    8.6378 O   0  0  0  0  0  0  0  0  0  0  0  0
   -4.5951   67.8271    6.8582 O   0  0  0  0  0  0  0  0  0  0  0  0
   -3.3413   68.8707    9.1362 O   0  0  0  0  0  0  0  0  0  0  0  0
   -0.7174   66.1310   11.2588 O   0  0  0  0  0  0  0  0  0  0  0  0
   -5.6651   66.2865   10.8378 H   0  0  0  0  0  0  0  0  0  0  0  0
   -5.9058   67.5092    9.0353 H   0  0  0  0  0  0  0  0  0  0  0  0
   -3.7756   66.0365    7.3977 H   0  0  0  0  0  0  0  0  0  0  0  0
   -2.1207   67.7475    7.9070 H   0  0  0  0  0  0  0  0  0  0  0  0
   -2.2604   65.7094    9.3431 H   0  0  0  0  0  0  0  0  0  0  0  0
   -1.5756   67.9798   11.2661 H   0  0  0  0  0  0  0  0  0  0  0  0
   -0.5382   67.6256    9.8566 H   0  0  0  0  0  0  0  0  0  0  0  0
   -6.1529   62.3197    7.4545 H   0  0  0  0  0  0  0  0  0  0  0  0
   -6.8099   63.5406    6.3479 H   0  0  0  0  0  0  0  0  0  0  0  0
   -7.6353   63.1766    7.9064 H   0  0  0  0  0  0  0  0  0  0  0  0
   -3.3608   65.7729   11.5213 H   0  0  0  0  0  0  0  0  0  0  0  0
   -3.8436   67.4684   11.3059 H   0  0  0  0  0  0  0  0  0  0  0  0
   -7.0946   65.9218    7.8137 H   0  0  0  0  0  0  0  0  0  0  0  0
   -5.3537   67.4235    6.4068 H   0  0  0  0  0  0  0  0  0  0  0  0
   -2.5695   69.3238    9.5188 H   0  0  0  0  0  0  0  0  0  0  0  0
    0.0753   66.4549   11.7235 H   0  0  0  0  0  0  0  0  0  0  0  0
   -4.8645   65.0609   10.0827 H   0  0  0  0  0  0  0  0  0  0  0  0
  1  2  1  0  0  0  0
  1  9  1  0  0  0  0
  1 15  1  0  0  0  0
  1 31  1  0  0  0  0
  2  3  1  0  0  0  0
  2 10  1  0  0  0  0
  2 16  1  1  0  0  0
  3  4  1  0  0  0  0
  3 12  1  0  0  0  0
  3 17  1  6  0  0  0
  4  5  1  0  0  0  0
  4 13  1  0  0  0  0
  4 18  1  6  0  0  0
  5  6  1  0  0  0  0
  5  9  1  0  0  0  0
  5 19  1  6  0  0  0
  6 14  1  0  0  0  0
  6 20  1  0  0  0  0
  6 21  1  0  0  0  0
  7  8  1  0  0  0  0
  7 10  1  0  0  0  0
  7 11  2  0  0  0  0
  8 22  1  0  0  0  0
  8 23  1  0  0  0  0
  8 24  1  0  0  0  0
  9 25  1  0  0  0  0
  9 26  1  0  0  0  0
 10 27  1  0  0  0  0
 12 28  1  0  0  0  0
 13 29  1  0  0  0  0
 14 30  1  0  0  0  0
M  CHG  1   1   1
M  END
$$$$
