IFM
 OpenBabel04041916123D

 24 24  0  0  1  0  0  0  0  0999 V2000
   -1.3365   10.9787    6.4904 O   0  0  0  0  0  0  0  0  0  0  0  0
   -0.8484   10.7323    7.8087 C   0  0  1  0  0  0  0  0  0  0  0  0
   -0.0171   11.9607    8.2203 C   0  0  2  0  0  0  0  0  0  0  0  0
    1.1057   12.1190    7.3636 O   0  0  0  0  0  0  0  0  0  0  0  0
    0.4834   11.8553    9.6605 C   0  0  0  0  0  0  0  0  0  0  0  0
   -0.6319   11.5257   10.5977 N   0  3  0  0  0  0  0  0  0  0  0  0
   -1.4508   10.3579   10.2038 C   0  0  0  0  0  0  0  0  0  0  0  0
   -2.0149   10.5601    8.7974 C   0  0  2  0  0  0  0  0  0  0  0  0
   -2.9364    9.3912    8.4702 C   0  0  0  0  0  0  0  0  0  0  0  0
   -2.2996    8.1709    8.8260 O   0  0  0  0  0  0  0  0  0  0  0  0
   -1.7228   10.1678    6.1112 H   0  0  0  0  0  0  0  0  0  0  0  0
   -0.2153    9.8387    7.7700 H   0  0  0  0  0  0  0  0  0  0  0  0
   -0.6304   12.8702    8.1126 H   0  0  0  0  0  0  0  0  0  0  0  0
    0.7579   12.3165    6.4708 H   0  0  0  0  0  0  0  0  0  0  0  0
    0.9091   12.8104    9.9940 H   0  0  0  0  0  0  0  0  0  0  0  0
    1.2531   11.0875    9.7722 H   0  0  0  0  0  0  0  0  0  0  0  0
   -0.2221   11.3446   11.5327 H   0  0  0  0  0  0  0  0  0  0  0  0
   -2.2510   10.2640   10.9564 H   0  0  0  0  0  0  0  0  0  0  0  0
   -0.7993    9.4830   10.2666 H   0  0  0  0  0  0  0  0  0  0  0  0
   -2.6336   11.4711    8.7531 H   0  0  0  0  0  0  0  0  0  0  0  0
   -3.2439    9.3573    7.4199 H   0  0  0  0  0  0  0  0  0  0  0  0
   -3.8454    9.4758    9.0696 H   0  0  0  0  0  0  0  0  0  0  0  0
   -1.5855    7.9747    8.1933 H   0  0  0  0  0  0  0  0  0  0  0  0
   -1.2248   12.3533   10.7264 H   0  0  0  0  0  0  0  0  0  0  0  0
  1  2  1  0  0  0  0
  1 11  1  0  0  0  0
  2  3  1  0  0  0  0
  2  8  1  0  0  0  0
  2 12  1  1  0  0  0
  3  4  1  0  0  0  0
  3  5  1  0  0  0  0
  3 13  1  6  0  0  0
  4 14  1  0  0  0  0
  5  6  1  0  0  0  0
  5 15  1  0  0  0  0
  5 16  1  0  0  0  0
  6  7  1  0  0  0  0
  6 17  1  0  0  0  0
  6 24  1  0  0  0  0
  7  8  1  0  0  0  0
  7 18  1  0  0  0  0
  7 19  1  0  0  0  0
  8  9  1  0  0  0  0
  8 20  1  6  0  0  0
  9 10  1  0  0  0  0
  9 21  1  0  0  0  0
  9 22  1  0  0  0  0
 10 23  1  0  0  0  0
M  CHG  1   6   1
M  END
$$$$
