IMG
 OpenBabel04041914003D

 36 38  0  0  1  0  0  0  0  0999 V2000
  -66.6651   90.2417   97.4785 O   0  0  0  0  0  0  0  0  0  0  0  0
  -65.3003   90.2736   97.0317 C   0  0  0  0  0  0  0  0  0  0  0  0
  -65.0120   88.9343   96.3462 C   0  0  1  0  0  0  0  0  0  0  0  0
  -66.1233   88.7193   95.3413 N   0  3  0  0  0  0  0  0  0  0  0  0
  -63.7467   88.8188   95.5042 C   0  0  1  0  0  0  0  0  0  0  0  0
  -63.3959   87.4317   95.3828 O   0  0  0  0  0  0  0  0  0  0  0  0
  -64.1351   89.3527   94.1133 C   0  0  1  0  0  0  0  0  0  0  0  0
  -63.5829   88.5646   93.0517 O   0  0  0  0  0  0  0  0  0  0  0  0
  -65.6826   89.3603   94.0424 C   0  0  2  0  0  0  0  0  0  0  0  0
  -66.3278   90.6984   93.8454 C   0  0  2  0  0  0  0  0  0  0  0  0
  -67.6527   91.0453   94.1302 C   0  0  0  0  0  0  0  0  0  0  0  0
  -67.8416   92.3763   93.8464 N   0  3  0  0  0  0  0  0  0  0  0  0
  -66.6791   92.8976   93.3429 C   0  0  1  0  0  0  0  0  0  0  0  0
  -66.3838   94.2223   92.9063 C   0  0  0  0  0  0  0  0  0  0  0  0
  -67.1681   95.1559   92.9188 O   0  0  0  0  0  0  0  0  0  0  0  0
  -65.0765   94.3393   92.4759 N   0  3  0  0  0  0  0  0  0  0  0  0
  -62.9260   93.5672   92.0441 N   0  0  0  0  0  0  0  0  0  0  0  0
  -64.1810   93.2872   92.4772 C   0  0  1  0  0  0  0  0  0  0  0  0
  -64.4603   92.0838   92.8819 N   0  0  0  0  0  0  0  0  0  0  0  0
  -65.7647   91.8896   93.3260 C   0  0  1  0  0  0  0  0  0  0  0  0
  -66.7175   89.7830   98.3402 H   0  0  0  0  0  0  0  0  0  0  0  0
  -64.6302   90.4691   97.8731 H   0  0  0  0  0  0  0  0  0  0  0  0
  -65.2149   91.1062   96.3298 H   0  0  0  0  0  0  0  0  0  0  0  0
  -65.1007   88.1155   97.0719 H   0  0  0  0  0  0  0  0  0  0  0  0
  -66.3122   87.7183   95.2150 H   0  0  0  0  0  0  0  0  0  0  0  0
  -62.9029   89.3754   95.9335 H   0  0  0  0  0  0  0  0  0  0  0  0
  -62.9285   87.1483   96.1939 H   0  0  0  0  0  0  0  0  0  0  0  0
  -63.6897   90.3391   94.0276 H   0  0  0  0  0  0  0  0  0  0  0  0
  -63.8091   87.6278   93.2036 H   0  0  0  0  0  0  0  0  0  0  0  0
  -66.0382   88.6802   93.2587 H   0  0  0  0  0  0  0  0  0  0  0  0
  -68.4830   90.4568   94.5208 H   0  0  0  0  0  0  0  0  0  0  0  0
  -68.7098   92.8944   93.9411 H   0  0  0  0  0  0  0  0  0  0  0  0
  -64.7845   95.2471   92.1680 H   0  0  0  0  0  0  0  0  0  0  0  0
  -62.2944   92.7820   91.9180 H   0  0  0  0  0  0  0  0  0  0  0  0
  -62.7093   94.3937   91.5038 H   0  0  0  0  0  0  0  0  0  0  0  0
  -66.9684   89.1745   95.7124 H   0  0  0  0  0  0  0  0  0  0  0  0
  1  2  1  0  0  0  0
  1 21  1  0  0  0  0
  2  3  1  0  0  0  0
  2 22  1  0  0  0  0
  2 23  1  0  0  0  0
  3  4  1  0  0  0  0
  3  5  1  0  0  0  0
  3 24  1  1  0  0  0
  4  9  1  0  0  0  0
  4 25  1  0  0  0  0
  4 36  1  0  0  0  0
  5  6  1  0  0  0  0
  5  7  1  0  0  0  0
  5 26  1  1  0  0  0
  6 27  1  0  0  0  0
  7  8  1  0  0  0  0
  7  9  1  0  0  0  0
  7 28  1  6  0  0  0
  8 29  1  0  0  0  0
  9 10  1  0  0  0  0
  9 30  1  6  0  0  0
 10 11  1  6  0  0  0
 10 20  1  0  0  0  0
 11 12  1  0  0  0  0
 11 31  1  0  0  0  0
 12 32  1  0  0  0  0
 13 12  1  1  0  0  0
 13 14  1  0  0  0  0
 13 20  1  0  0  0  0
 14 15  2  0  0  0  0
 14 16  1  0  0  0  0
 16 18  1  0  0  0  0
 16 33  1  0  0  0  0
 17 34  1  0  0  0  0
 17 35  1  0  0  0  0
 18 19  1  0  0  0  0
 18 17  1  1  0  0  0
 20 19  1  1  0  0  0
M  CHG  3   4   1  12   1  16   1
M  END
$$$$
