IMH
 OpenBabel04041916003D

 34 36  0  0  1  0  0  0  0  0999 V2000
    7.4028    1.2464   94.6714 O   0  0  0  0  0  0  0  0  0  0  0  0
    8.6670    1.3759   94.0244 C   0  0  0  0  0  0  0  0  0  0  0  0
    8.4138    1.2887   92.5221 C   0  0  1  0  0  0  0  0  0  0  0  0
    7.3958    2.3186   92.1399 N   0  3  0  0  0  0  0  0  0  0  0  0
    9.6371    1.5771   91.6745 C   0  0  1  0  0  0  0  0  0  0  0  0
    9.5640    0.7881   90.4851 O   0  0  0  0  0  0  0  0  0  0  0  0
    9.5645    3.0612   91.3227 C   0  0  1  0  0  0  0  0  0  0  0  0
   10.0372    3.2660   89.9864 O   0  0  0  0  0  0  0  0  0  0  0  0
    8.0962    3.4967   91.5153 C   0  0  2  0  0  0  0  0  0  0  0  0
    7.8331    4.7088   92.3550 C   0  0  1  0  0  0  0  0  0  0  0  0
    6.5570    5.1787   92.6865 C   0  0  0  0  0  0  0  0  0  0  0  0
    6.6780    6.2774   93.4991 N   0  3  0  0  0  0  0  0  0  0  0  0
    8.0049    6.5236   93.7002 C   0  0  1  0  0  0  0  0  0  0  0  0
    8.6188    7.5548   94.4853 C   0  0  0  0  0  0  0  0  0  0  0  0
    8.0157    8.4016   95.1310 O   0  0  0  0  0  0  0  0  0  0  0  0
    9.9913    7.4668   94.4531 N   0  3  0  0  0  0  0  0  0  0  0  0
   10.6589    6.5005   93.7404 C   0  0  0  0  0  0  0  0  0  0  0  0
   10.1175    5.5580   93.0275 N   0  0  0  0  0  0  0  0  0  0  0  0
    8.7183    5.5938   93.0115 C   0  0  1  0  0  0  0  0  0  0  0  0
    7.5733    1.1391   95.6285 H   0  0  0  0  0  0  0  0  0  0  0  0
    9.3329    0.5657   94.3379 H   0  0  0  0  0  0  0  0  0  0  0  0
    9.0989    2.3378   94.3146 H   0  0  0  0  0  0  0  0  0  0  0  0
    7.9469    0.3280   92.2738 H   0  0  0  0  0  0  0  0  0  0  0  0
    6.6998    1.9284   91.5028 H   0  0  0  0  0  0  0  0  0  0  0  0
   10.5667    1.3359   92.2033 H   0  0  0  0  0  0  0  0  0  0  0  0
   10.4450    0.8410   90.0611 H   0  0  0  0  0  0  0  0  0  0  0  0
   10.2447    3.5843   91.9862 H   0  0  0  0  0  0  0  0  0  0  0  0
    9.5114    2.7111   89.3785 H   0  0  0  0  0  0  0  0  0  0  0  0
    7.6143    3.6420   90.5330 H   0  0  0  0  0  0  0  0  0  0  0  0
    5.5738    4.8215   92.4107 H   0  0  0  0  0  0  0  0  0  0  0  0
    5.9152    6.8251   93.9021 H   0  0  0  0  0  0  0  0  0  0  0  0
   10.4925    8.1717   94.9803 H   0  0  0  0  0  0  0  0  0  0  0  0
   11.7591    6.5848   93.8165 H   0  0  0  0  0  0  0  0  0  0  0  0
    6.8901    2.5966   92.9953 H   0  0  0  0  0  0  0  0  0  0  0  0
  1  2  1  0  0  0  0
  1 20  1  0  0  0  0
  2  3  1  0  0  0  0
  2 21  1  0  0  0  0
  2 22  1  0  0  0  0
  3  4  1  0  0  0  0
  3  5  1  0  0  0  0
  3 23  1  6  0  0  0
  4  9  1  0  0  0  0
  4 24  1  0  0  0  0
  4 34  1  0  0  0  0
  5  6  1  0  0  0  0
  5  7  1  0  0  0  0
  5 25  1  1  0  0  0
  6 26  1  0  0  0  0
  7  8  1  0  0  0  0
  7  9  1  0  0  0  0
  7 27  1  1  0  0  0
  8 28  1  0  0  0  0
  9 10  1  0  0  0  0
  9 29  1  6  0  0  0
 10 11  1  1  0  0  0
 10 19  1  0  0  0  0
 11 12  1  0  0  0  0
 11 30  1  0  0  0  0
 12 31  1  0  0  0  0
 13 12  1  1  0  0  0
 13 14  1  0  0  0  0
 13 19  1  0  0  0  0
 14 15  2  0  0  0  0
 14 16  1  0  0  0  0
 16 17  1  0  0  0  0
 16 32  1  0  0  0  0
 17 18  1  0  0  0  0
 17 33  1  0  0  0  0
 19 18  1  1  0  0  0
M  CHG  3   4   1  12   1  16   1
M  END
$$$$
