IMH
 OpenBabel04041916463D

 34 36  0  0  1  0  0  0  0  0999 V2000
    3.2031   18.4218   26.2253 C   0  0  1  0  0  0  0  0  0  0  0  0
    3.2107   19.4534   27.1813 C   0  0  0  0  0  0  0  0  0  0  0  0
    2.4076   19.0917   28.2329 N   0  3  0  0  0  0  0  0  0  0  0  0
    1.8882   17.8459   27.9924 C   0  0  2  0  0  0  0  0  0  0  0  0
    1.0025   17.0578   28.7916 C   0  0  0  0  0  0  0  0  0  0  0  0
    0.5318   17.4106   29.8735 O   0  0  0  0  0  0  0  0  0  0  0  0
    0.7172   15.8491   28.2049 N   0  3  0  0  0  0  0  0  0  0  0  0
    1.2305   15.4697   26.9888 C   0  0  0  0  0  0  0  0  0  0  0  0
    2.0291   16.1871   26.2399 N   0  0  0  0  0  0  0  0  0  0  0  0
    2.3758   17.4186   26.7852 C   0  0  1  0  0  0  0  0  0  0  0  0
    1.5838   21.5630   23.6039 O   0  0  0  0  0  0  0  0  0  0  0  0
    1.5464   20.2201   23.1300 C   0  0  0  0  0  0  0  0  0  0  0  0
    2.9801   19.7423   23.0076 C   0  0  1  0  0  0  0  0  0  0  0  0
    3.6824   19.8688   24.3149 N   0  3  0  0  0  0  0  0  0  0  0  0
    3.0802   18.3038   22.5849 C   0  0  1  0  0  0  0  0  0  0  0  0
    4.0587   18.2612   21.5453 O   0  0  0  0  0  0  0  0  0  0  0  0
    3.5165   17.5131   23.8178 C   0  0  1  0  0  0  0  0  0  0  0  0
    4.5569   16.5999   23.4628 O   0  0  0  0  0  0  0  0  0  0  0  0
    3.9347   18.5122   24.9084 C   0  0  2  0  0  0  0  0  0  0  0  0
    3.7088   20.4076   27.1817 H   0  0  0  0  0  0  0  0  0  0  0  0
    2.2209   19.6575   29.0556 H   0  0  0  0  0  0  0  0  0  0  0  0
    0.0923   15.2351   28.7094 H   0  0  0  0  0  0  0  0  0  0  0  0
    0.8957   14.4794   26.6532 H   0  0  0  0  0  0  0  0  0  0  0  0
    1.9994   22.1202   22.9181 H   0  0  0  0  0  0  0  0  0  0  0  0
    1.0524   20.1736   22.1530 H   0  0  0  0  0  0  0  0  0  0  0  0
    0.9816   19.6108   23.8428 H   0  0  0  0  0  0  0  0  0  0  0  0
    3.5241   20.4148   22.3323 H   0  0  0  0  0  0  0  0  0  0  0  0
    4.5521   20.3957   24.2161 H   0  0  0  0  0  0  0  0  0  0  0  0
    2.1238   17.9263   22.1979 H   0  0  0  0  0  0  0  0  0  0  0  0
    4.0639   17.3564   21.1831 H   0  0  0  0  0  0  0  0  0  0  0  0
    2.6577   16.9311   24.1442 H   0  0  0  0  0  0  0  0  0  0  0  0
    5.3040   17.0980   23.0819 H   0  0  0  0  0  0  0  0  0  0  0  0
    5.0236   18.4618   25.0894 H   0  0  0  0  0  0  0  0  0  0  0  0
    3.0717   20.4180   24.9466 H   0  0  0  0  0  0  0  0  0  0  0  0
  1  2  1  6  0  0  0
  1 10  1  0  0  0  0
  1 19  1  0  0  0  0
  2  3  1  0  0  0  0
  2 20  1  0  0  0  0
  3 21  1  0  0  0  0
  4  3  1  1  0  0  0
  4  5  1  0  0  0  0
  4 10  1  0  0  0  0
  5  6  2  0  0  0  0
  5  7  1  0  0  0  0
  7  8  1  0  0  0  0
  7 22  1  0  0  0  0
  8  9  1  0  0  0  0
  8 23  1  0  0  0  0
 10  9  1  6  0  0  0
 11 12  1  0  0  0  0
 11 24  1  0  0  0  0
 12 13  1  0  0  0  0
 12 25  1  0  0  0  0
 12 26  1  0  0  0  0
 13 14  1  0  0  0  0
 13 15  1  0  0  0  0
 13 27  1  6  0  0  0
 14 19  1  0  0  0  0
 14 28  1  0  0  0  0
 14 34  1  0  0  0  0
 15 16  1  0  0  0  0
 15 17  1  0  0  0  0
 15 29  1  6  0  0  0
 16 30  1  0  0  0  0
 17 18  1  0  0  0  0
 17 19  1  0  0  0  0
 17 31  1  1  0  0  0
 18 32  1  0  0  0  0
 19 33  1  1  0  0  0
M  CHG  3   3   1   7   1  14   1
M  END
$$$$
