IMP
 OpenBabel04041916383D

 34 36  0  0  1  0  0  0  0  0999 V2000
   30.6332    4.8077    8.5626 P   0  0  0  0  0  0  0  0  0  0  0  0
   31.6118    5.3434    7.5229 O   0  0  0  0  0  0  0  0  0  0  0  0
   30.3163    3.3292    8.4234 O   0  0  0  0  0  0  0  0  0  0  0  0
   30.9357    5.2593    9.9856 O   0  0  0  0  0  0  0  0  0  0  0  0
   29.1961    5.5507    8.2005 O   0  0  0  0  0  0  0  0  0  0  0  0
   28.8213    6.5707    9.1140 C   0  0  0  0  0  0  0  0  0  0  0  0
   27.5042    7.2591    8.7704 C   0  0  1  0  0  0  0  0  0  0  0  0
   27.7270    8.0425    7.5823 O   0  0  0  0  0  0  0  0  0  0  0  0
   26.2649    6.4017    8.5035 C   0  0  1  0  0  0  0  0  0  0  0  0
   25.4814    6.0761    9.6599 O   0  0  0  0  0  0  0  0  0  0  0  0
   25.4403    7.3009    7.5883 C   0  0  1  0  0  0  0  0  0  0  0  0
   24.5379    8.1398    8.3508 O   0  0  0  0  0  0  0  0  0  0  0  0
   26.5027    8.1261    6.8633 C   0  0  2  0  0  0  0  0  0  0  0  0
   26.6923    7.6809    5.4983 N   0  3  0  0  0  0  0  0  0  0  0  0
   27.6091    6.7803    4.9964 C   0  0  0  0  0  0  0  0  0  0  0  0
   27.4255    6.5704    3.7073 N   0  0  0  0  0  0  0  0  0  0  0  0
   26.3547    7.3477    3.3719 C   0  0  0  0  0  0  0  0  0  0  0  0
   25.6736    7.5380    2.1039 C   0  0  0  0  0  0  0  0  0  0  0  0
   25.9792    7.0326    1.0254 O   0  0  0  0  0  0  0  0  0  0  0  0
   24.5789    8.3999    2.2144 N   0  3  0  0  0  0  0  0  0  0  0  0
   24.2169    9.0091    3.3905 C   0  0  0  0  0  0  0  0  0  0  0  0
   24.8044    8.8587    4.5407 N   0  0  0  0  0  0  0  0  0  0  0  0
   25.8621    8.0284    4.4628 C   0  0  0  0  0  0  0  0  0  0  0  0
   29.6018    7.3408    9.0860 H   0  0  0  0  0  0  0  0  0  0  0  0
   28.7419    6.1601   10.1241 H   0  0  0  0  0  0  0  0  0  0  0  0
   27.2716    7.9653    9.5814 H   0  0  0  0  0  0  0  0  0  0  0  0
   26.5255    5.4841    7.9690 H   0  0  0  0  0  0  0  0  0  0  0  0
   25.3158    6.9119   10.1312 H   0  0  0  0  0  0  0  0  0  0  0  0
   24.8194    6.7251    6.8966 H   0  0  0  0  0  0  0  0  0  0  0  0
   23.8795    7.5327    8.7383 H   0  0  0  0  0  0  0  0  0  0  0  0
   26.2436    9.1940    6.8504 H   0  0  0  0  0  0  0  0  0  0  0  0
   28.3784    6.3052    5.6082 H   0  0  0  0  0  0  0  0  0  0  0  0
   24.0596    8.5475    1.3654 H   0  0  0  0  0  0  0  0  0  0  0  0
   23.3264    9.6765    3.3059 H   0  0  0  0  0  0  0  0  0  0  0  0
  1  5  1  0  0  0  0
  1  4  2  0  0  0  0
  1  3  1  0  0  0  0
  1  2  1  0  0  0  0
  5  6  1  0  0  0  0
  6  7  1  0  0  0  0
  6 24  1  0  0  0  0
  6 25  1  0  0  0  0
  7  9  1  0  0  0  0
  7  8  1  0  0  0  0
  7 26  1  1  0  0  0
  8 13  1  0  0  0  0
  9 11  1  0  0  0  0
  9 10  1  0  0  0  0
  9 27  1  6  0  0  0
 10 28  1  0  0  0  0
 11 13  1  0  0  0  0
 11 12  1  0  0  0  0
 11 29  1  6  0  0  0
 12 30  1  0  0  0  0
 13 14  1  0  0  0  0
 13 31  1  6  0  0  0
 14 23  1  0  0  0  0
 14 15  2  0  0  0  0
 15 16  1  0  0  0  0
 15 32  1  0  0  0  0
 16 17  1  0  0  0  0
 17 23  2  0  0  0  0
 17 18  1  0  0  0  0
 18 20  1  0  0  0  0
 18 19  2  0  0  0  0
 20 21  1  0  0  0  0
 20 33  1  0  0  0  0
 21 22  2  0  0  0  0
 21 34  1  0  0  0  0
 22 23  1  0  0  0  0
M  CHG  2  14   1  20   1
M  END
$$$$
