IMP
 OpenBabel04041916173D

 34 36  0  0  1  0  0  0  0  0999 V2000
   70.2805   39.1035   36.1691 P   0  0  0  0  0  0  0  0  0  0  0  0
   70.6524   40.5389   36.5174 O   0  0  0  0  0  0  0  0  0  0  0  0
   71.0986   38.0466   36.8953 O   0  0  0  0  0  0  0  0  0  0  0  0
   68.7796   38.8360   36.1603 O   0  0  0  0  0  0  0  0  0  0  0  0
   70.7331   38.9276   34.5761 O   0  0  0  0  0  0  0  0  0  0  0  0
   69.9671   39.6563   33.6296 C   0  0  0  0  0  0  0  0  0  0  0  0
   70.3897   39.5703   32.1407 C   0  0  1  0  0  0  0  0  0  0  0  0
   70.8004   40.9251   31.7686 O   0  0  0  0  0  0  0  0  0  0  0  0
   71.5142   38.6492   31.6480 C   0  0  1  0  0  0  0  0  0  0  0  0
   71.1165   37.3474   31.2318 O   0  0  0  0  0  0  0  0  0  0  0  0
   72.0617   39.4193   30.4372 C   0  0  1  0  0  0  0  0  0  0  0  0
   71.2684   39.2610   29.2400 O   0  0  0  0  0  0  0  0  0  0  0  0
   71.9874   40.8376   30.9827 C   0  0  2  0  0  0  0  0  0  0  0  0
   73.1489   41.1560   31.7926 N   0  3  0  0  0  0  0  0  0  0  0  0
   73.3738   40.9523   33.1428 C   0  0  0  0  0  0  0  0  0  0  0  0
   74.6182   41.2517   33.4850 N   0  0  0  0  0  0  0  0  0  0  0  0
   75.1981   41.6616   32.3196 C   0  0  0  0  0  0  0  0  0  0  0  0
   76.5405   42.1253   32.0426 C   0  0  0  0  0  0  0  0  0  0  0  0
   77.4585   42.2569   32.8578 O   0  0  0  0  0  0  0  0  0  0  0  0
   76.7308   42.4350   30.7137 N   0  3  0  0  0  0  0  0  0  0  0  0
   75.7551   42.2756   29.7364 C   0  0  0  0  0  0  0  0  0  0  0  0
   74.5501   41.8545   29.9557 N   0  0  0  0  0  0  0  0  0  0  0  0
   74.3283   41.5932   31.2669 C   0  0  0  0  0  0  0  0  0  0  0  0
   70.0069   40.7140   33.9145 H   0  0  0  0  0  0  0  0  0  0  0  0
   68.9217   39.3382   33.6833 H   0  0  0  0  0  0  0  0  0  0  0  0
   69.4929   39.3603   31.5411 H   0  0  0  0  0  0  0  0  0  0  0  0
   72.3035   38.5705   32.4013 H   0  0  0  0  0  0  0  0  0  0  0  0
   71.9352   36.8641   31.0286 H   0  0  0  0  0  0  0  0  0  0  0  0
   73.0753   39.1148   30.1628 H   0  0  0  0  0  0  0  0  0  0  0  0
   71.2422   38.3101   29.0330 H   0  0  0  0  0  0  0  0  0  0  0  0
   71.9063   41.5954   30.1946 H   0  0  0  0  0  0  0  0  0  0  0  0
   72.6227   40.5813   33.8343 H   0  0  0  0  0  0  0  0  0  0  0  0
   77.6463   42.7591   30.4679 H   0  0  0  0  0  0  0  0  0  0  0  0
   76.0695   42.5565   28.7314 H   0  0  0  0  0  0  0  0  0  0  0  0
  1  2  2  0  0  0  0
  1  3  1  0  0  0  0
  1  4  1  0  0  0  0
  1  5  1  0  0  0  0
  5  6  1  0  0  0  0
  6  7  1  0  0  0  0
  6 24  1  0  0  0  0
  6 25  1  0  0  0  0
  7  8  1  0  0  0  0
  7  9  1  0  0  0  0
  7 26  1  6  0  0  0
  8 13  1  0  0  0  0
  9 10  1  0  0  0  0
  9 11  1  0  0  0  0
  9 27  1  1  0  0  0
 10 28  1  0  0  0  0
 11 12  1  0  0  0  0
 11 13  1  0  0  0  0
 11 29  1  6  0  0  0
 12 30  1  0  0  0  0
 13 14  1  0  0  0  0
 13 31  1  6  0  0  0
 14 15  2  0  0  0  0
 14 23  1  0  0  0  0
 15 16  1  0  0  0  0
 15 32  1  0  0  0  0
 16 17  1  0  0  0  0
 17 18  1  0  0  0  0
 17 23  2  0  0  0  0
 18 19  2  0  0  0  0
 18 20  1  0  0  0  0
 20 21  1  0  0  0  0
 20 33  1  0  0  0  0
 21 22  2  0  0  0  0
 21 34  1  0  0  0  0
 22 23  1  0  0  0  0
M  CHG  2  14   1  20   1
M  END
$$$$
