INF
 OpenBabel04041914553D

 27 27  0  0  1  0  0  0  0  0999 V2000
   -2.2410   30.8238   -6.1348 N   0  0  0  0  0  0  0  0  0  0  0  0
   -1.2460   31.8519   -6.4020 C   0  0  1  0  0  0  0  0  0  0  0  0
    0.1875   31.2559   -6.7065 C   0  0  0  0  0  0  0  0  0  0  0  0
    1.1323   32.1093   -6.6536 O   0  0  0  0  0  0  0  0  0  0  0  0
   -1.7351   32.7148   -7.5739 C   0  0  0  0  0  0  0  0  0  0  0  0
   -2.0276   31.9875   -8.8829 C   0  0  0  0  0  0  0  0  0  0  0  0
   -1.0504   31.9471   -9.8916 C   0  0  0  0  0  0  0  0  0  0  0  0
   -3.2510   31.3343   -9.1118 C   0  0  0  0  0  0  0  0  0  0  0  0
   -1.2882   31.2694  -11.0953 C   0  0  0  0  0  0  0  0  0  0  0  0
   -3.4899   30.6516  -10.3162 C   0  0  0  0  0  0  0  0  0  0  0  0
   -2.5025   30.6183  -11.3078 C   0  0  0  0  0  0  0  0  0  0  0  0
    0.2225   30.0288   -6.9430 O   0  0  0  0  0  0  0  0  0  0  0  0
   -2.7551   30.5427   -4.9148 C   0  0  0  0  0  0  0  0  0  0  0  0
   -2.6535   31.2393   -3.9125 O   0  0  0  0  0  0  0  0  0  0  0  0
   -3.5681   29.4413   -4.9364 N   0  0  0  0  0  0  0  0  0  0  0  0
   -3.6355   28.6039   -6.0675 O   0  0  0  0  0  0  0  0  0  0  0  0
   -2.1911   30.0621   -6.7961 H   0  0  0  0  0  0  0  0  0  0  0  0
   -1.1655   32.4995   -5.5082 H   0  0  0  0  0  0  0  0  0  0  0  0
   -1.0169   33.5196   -7.7720 H   0  0  0  0  0  0  0  0  0  0  0  0
   -2.6626   33.2198   -7.2686 H   0  0  0  0  0  0  0  0  0  0  0  0
   -0.0878   32.4349   -9.7322 H   0  0  0  0  0  0  0  0  0  0  0  0
   -4.0254   31.3549   -8.3490 H   0  0  0  0  0  0  0  0  0  0  0  0
   -0.5104   31.2372  -11.8477 H   0  0  0  0  0  0  0  0  0  0  0  0
   -4.4320   30.1425  -10.4720 H   0  0  0  0  0  0  0  0  0  0  0  0
   -2.6833   30.0802  -12.2227 H   0  0  0  0  0  0  0  0  0  0  0  0
   -4.0220   29.1471   -4.0857 H   0  0  0  0  0  0  0  0  0  0  0  0
   -3.9648   29.2102   -6.7575 H   0  0  0  0  0  0  0  0  0  0  0  0
  1  2  1  0  0  0  0
  1 13  1  0  0  0  0
  1 17  1  0  0  0  0
  2  5  1  0  0  0  0
  2  3  1  0  0  0  0
  2 18  1  1  0  0  0
  3  4  2  0  0  0  0
  3 12  1  0  0  0  0
  5  6  1  0  0  0  0
  5 19  1  0  0  0  0
  5 20  1  0  0  0  0
  6  7  2  0  0  0  0
  6  8  1  0  0  0  0
  7  9  1  0  0  0  0
  7 21  1  0  0  0  0
  8 10  2  0  0  0  0
  8 22  1  0  0  0  0
  9 11  2  0  0  0  0
  9 23  1  0  0  0  0
 10 11  1  0  0  0  0
 10 24  1  0  0  0  0
 11 25  1  0  0  0  0
 13 15  1  0  0  0  0
 13 14  2  0  0  0  0
 15 16  1  0  0  0  0
 15 26  1  0  0  0  0
 16 27  1  0  0  0  0
M  END
$$$$
