INX
 OpenBabel04041914463D

 77 78  0  0  1  0  0  0  0  0999 V2000
   13.5839   16.8592   11.8741 C   0  0  0  0  0  0  0  0  0  0  0  0
   13.6038   16.5580   10.5031 C   0  0  0  0  0  0  0  0  0  0  0  0
   12.4422   16.6535    9.7219 C   0  0  0  0  0  0  0  0  0  0  0  0
   11.2329   17.0404   10.3087 C   0  0  0  0  0  0  0  0  0  0  0  0
   11.2137   17.3147   11.6782 C   0  0  0  0  0  0  0  0  0  0  0  0
   12.3756   17.2304   12.4845 C   0  0  0  0  0  0  0  0  0  0  0  0
    9.9656   17.1370    9.5010 C   0  0  0  0  0  0  0  0  0  0  0  0
    9.2332   18.4800    9.6111 C   0  0  2  0  0  0  0  0  0  0  0  0
   14.6931   16.5565   12.6101 O   0  0  0  0  0  0  0  0  0  0  0  0
    7.9429   18.4063    8.8684 N   0  0  0  0  0  0  0  0  0  0  0  0
   10.0565   19.6228    8.9754 C   0  0  0  0  0  0  0  0  0  0  0  0
    7.0240   19.3936    9.1284 C   0  0  0  0  0  0  0  0  0  0  0  0
    9.9011   19.6374    7.5953 N   0  0  0  0  0  0  0  0  0  0  0  0
   10.8434   20.3400    9.5633 O   0  0  0  0  0  0  0  0  0  0  0  0
   10.7592   20.2833    6.6363 C   0  0  0  0  0  0  0  0  0  0  0  0
   11.8574   19.3268    6.1655 C   0  0  0  0  0  0  0  0  0  0  0  0
   11.2957   17.9196    5.8915 C   0  0  0  0  0  0  0  0  0  0  0  0
   11.5708   17.3985    4.4908 C   0  0  0  0  0  0  0  0  0  0  0  0
   12.5172   16.2155    4.5205 C   0  0  0  0  0  0  0  0  0  0  0  0
    7.2869   20.3714    9.8334 O   0  0  0  0  0  0  0  0  0  0  0  0
    5.6754   19.2923    8.4317 C   0  0  1  0  0  0  0  0  0  0  0  0
    4.6480   19.5031    9.4596 N   0  0  0  0  0  0  0  0  0  0  0  0
   15.8065   17.4716   12.6158 C   0  0  0  0  0  0  0  0  0  0  0  0
   17.0460   16.7567   13.2469 C   0  0  0  0  0  0  0  0  0  0  0  0
   18.1400   17.4331   13.1537 O   0  0  0  0  0  0  0  0  0  0  0  0
   16.9209   15.5887   13.7218 O   0  0  0  0  0  0  0  0  0  0  0  0
   12.2168   17.5978   13.9527 C   0  0  0  0  0  0  0  0  0  0  0  0
   12.8570   16.9430   14.8393 O   0  0  0  0  0  0  0  0  0  0  0  0
   11.4016   18.5295   14.2026 O   0  0  0  0  0  0  0  0  0  0  0  0
    5.6150   20.3945    7.3660 C   0  0  0  0  0  0  0  0  0  0  0  0
    4.3379   20.2534    6.5746 C   0  0  0  0  0  0  0  0  0  0  0  0
    4.3104   19.4739    5.4097 C   0  0  0  0  0  0  0  0  0  0  0  0
    3.1098   19.2791    4.7313 C   0  0  0  0  0  0  0  0  0  0  0  0
    1.9394   19.8596    5.2178 C   0  0  0  0  0  0  0  0  0  0  0  0
    1.9535   20.6157    6.3909 C   0  0  0  0  0  0  0  0  0  0  0  0
    3.1497   20.8098    7.0705 C   0  0  0  0  0  0  0  0  0  0  0  0
    3.8699   18.4431    9.8714 C   0  0  0  0  0  0  0  0  0  0  0  0
    2.7956   18.7625   10.9029 C   0  0  0  0  0  0  0  0  0  0  0  0
    1.9967   17.5016   11.2718 C   0  0  0  0  0  0  0  0  0  0  0  0
    0.6944   17.2611   10.4921 C   0  0  0  0  0  0  0  0  0  0  0  0
    0.0345   18.2872   10.1604 O   0  0  0  0  0  0  0  0  0  0  0  0
    0.3919   16.0428   10.3266 O   0  0  0  0  0  0  0  0  0  0  0  0
    4.0533   17.3275    9.3891 O   0  0  0  0  0  0  0  0  0  0  0  0
   14.5313   16.2205   10.0491 H   0  0  0  0  0  0  0  0  0  0  0  0
   12.4984   16.4211    8.6645 H   0  0  0  0  0  0  0  0  0  0  0  0
   10.2837   17.6209   12.1623 H   0  0  0  0  0  0  0  0  0  0  0  0
    9.2879   16.3427    9.8425 H   0  0  0  0  0  0  0  0  0  0  0  0
   10.1826   16.9225    8.4483 H   0  0  0  0  0  0  0  0  0  0  0  0
    9.0186   18.7440   10.6502 H   0  0  0  0  0  0  0  0  0  0  0  0
    7.6647   17.5515    8.4137 H   0  0  0  0  0  0  0  0  0  0  0  0
    9.2166   18.9770    7.2611 H   0  0  0  0  0  0  0  0  0  0  0  0
   11.1721   21.2048    7.0530 H   0  0  0  0  0  0  0  0  0  0  0  0
   10.1160   20.5395    5.7864 H   0  0  0  0  0  0  0  0  0  0  0  0
   12.6276   19.2575    6.9453 H   0  0  0  0  0  0  0  0  0  0  0  0
   12.3520   19.7413    5.2789 H   0  0  0  0  0  0  0  0  0  0  0  0
   10.2085   17.9096    6.0004 H   0  0  0  0  0  0  0  0  0  0  0  0
   11.6819   17.2288    6.6481 H   0  0  0  0  0  0  0  0  0  0  0  0
   11.9795   18.1849    3.8537 H   0  0  0  0  0  0  0  0  0  0  0  0
   10.6219   17.0782    4.0402 H   0  0  0  0  0  0  0  0  0  0  0  0
   12.6968   15.8544    3.5046 H   0  0  0  0  0  0  0  0  0  0  0  0
   12.0976   15.3924    5.1084 H   0  0  0  0  0  0  0  0  0  0  0  0
   13.4751   16.5047    4.9628 H   0  0  0  0  0  0  0  0  0  0  0  0
    5.5647   18.3157    7.9542 H   0  0  0  0  0  0  0  0  0  0  0  0
    4.6229   20.3942    9.9377 H   0  0  0  0  0  0  0  0  0  0  0  0
   15.5724   18.3639   13.2190 H   0  0  0  0  0  0  0  0  0  0  0  0
   16.0860   17.8052   11.6060 H   0  0  0  0  0  0  0  0  0  0  0  0
    6.4777   20.3474    6.6867 H   0  0  0  0  0  0  0  0  0  0  0  0
    5.6583   21.3902    7.8274 H   0  0  0  0  0  0  0  0  0  0  0  0
    5.2195   19.0034    5.0405 H   0  0  0  0  0  0  0  0  0  0  0  0
    3.0826   18.6666    3.8326 H   0  0  0  0  0  0  0  0  0  0  0  0
    1.0009   19.7096    4.6926 H   0  0  0  0  0  0  0  0  0  0  0  0
    1.0304   21.0371    6.7826 H   0  0  0  0  0  0  0  0  0  0  0  0
    3.1508   21.3656    8.0102 H   0  0  0  0  0  0  0  0  0  0  0  0
    2.1373   19.5445   10.5054 H   0  0  0  0  0  0  0  0  0  0  0  0
    3.2830   19.1623   11.8025 H   0  0  0  0  0  0  0  0  0  0  0  0
    1.7504   17.5374   12.3376 H   0  0  0  0  0  0  0  0  0  0  0  0
    2.6264   16.6168   11.1385 H   0  0  0  0  0  0  0  0  0  0  0  0
  1  9  1  0  0  0  0
  1  6  2  0  0  0  0
  1  2  1  0  0  0  0
  2  3  2  0  0  0  0
  2 44  1  0  0  0  0
  3  4  1  0  0  0  0
  3 45  1  0  0  0  0
  4  7  1  0  0  0  0
  4  5  2  0  0  0  0
  5  6  1  0  0  0  0
  5 46  1  0  0  0  0
  6 27  1  0  0  0  0
  7  8  1  0  0  0  0
  7 47  1  0  0  0  0
  7 48  1  0  0  0  0
  8 11  1  0  0  0  0
  8 10  1  0  0  0  0
  8 49  1  1  0  0  0
  9 23  1  0  0  0  0
 10 12  1  0  0  0  0
 10 50  1  0  0  0  0
 11 14  2  0  0  0  0
 11 13  1  0  0  0  0
 12 21  1  0  0  0  0
 12 20  2  0  0  0  0
 13 15  1  0  0  0  0
 13 51  1  0  0  0  0
 15 16  1  0  0  0  0
 15 52  1  0  0  0  0
 15 53  1  0  0  0  0
 16 17  1  0  0  0  0
 16 54  1  0  0  0  0
 16 55  1  0  0  0  0
 17 18  1  0  0  0  0
 17 56  1  0  0  0  0
 17 57  1  0  0  0  0
 18 19  1  0  0  0  0
 18 58  1  0  0  0  0
 18 59  1  0  0  0  0
 19 60  1  0  0  0  0
 19 61  1  0  0  0  0
 19 62  1  0  0  0  0
 21 30  1  0  0  0  0
 21 22  1  0  0  0  0
 21 63  1  6  0  0  0
 22 37  1  0  0  0  0
 22 64  1  0  0  0  0
 23 24  1  0  0  0  0
 23 65  1  0  0  0  0
 23 66  1  0  0  0  0
 24 26  2  0  0  0  0
 24 25  1  0  0  0  0
 27 29  2  0  0  0  0
 27 28  1  0  0  0  0
 30 31  1  0  0  0  0
 30 67  1  0  0  0  0
 30 68  1  0  0  0  0
 31 36  2  0  0  0  0
 31 32  1  0  0  0  0
 32 33  2  0  0  0  0
 32 69  1  0  0  0  0
 33 34  1  0  0  0  0
 33 70  1  0  0  0  0
 34 35  2  0  0  0  0
 34 71  1  0  0  0  0
 35 36  1  0  0  0  0
 35 72  1  0  0  0  0
 36 73  1  0  0  0  0
 37 43  2  0  0  0  0
 37 38  1  0  0  0  0
 38 39  1  0  0  0  0
 38 74  1  0  0  0  0
 38 75  1  0  0  0  0
 39 40  1  0  0  0  0
 39 76  1  0  0  0  0
 39 77  1  0  0  0  0
 40 42  2  0  0  0  0
 40 41  1  0  0  0  0
M  END
$$$$
