INZ
 OpenBabel04041914463D

 69 70  0  0  1  0  0  0  0  0999 V2000
   16.6302   16.9151   13.5393 C   0  0  0  0  0  0  0  0  0  0  0  0
   17.1427   17.6896   14.4092 O   0  0  0  0  0  0  0  0  0  0  0  0
   17.2829   16.1504   12.7606 O   0  0  0  0  0  0  0  0  0  0  0  0
   13.6107   16.8597   11.3744 C   0  0  0  0  0  0  0  0  0  0  0  0
   13.5391   16.6202    9.9968 C   0  0  0  0  0  0  0  0  0  0  0  0
   12.3429   16.7789    9.3101 C   0  0  0  0  0  0  0  0  0  0  0  0
   11.2001   17.1932    9.9961 C   0  0  0  0  0  0  0  0  0  0  0  0
   11.2707   17.4300   11.3747 C   0  0  0  0  0  0  0  0  0  0  0  0
   12.4745   17.2648   12.0628 C   0  0  0  0  0  0  0  0  0  0  0  0
   15.1152   17.0666   13.2937 C   0  0  1  0  0  0  0  0  0  0  0  0
    9.9173   17.3502    9.2450 C   0  0  0  0  0  0  0  0  0  0  0  0
    9.2545   18.7117    9.3754 C   0  0  2  0  0  0  0  0  0  0  0  0
   14.8336   16.6368   11.9254 O   0  0  0  0  0  0  0  0  0  0  0  0
   14.4880   16.1710   14.3755 C   0  0  0  0  0  0  0  0  0  0  0  0
   14.2791   16.7097   15.5117 O   0  0  0  0  0  0  0  0  0  0  0  0
   14.0809   15.0157   14.0278 O   0  0  0  0  0  0  0  0  0  0  0  0
    7.9832   18.6240    8.6862 N   0  0  0  0  0  0  0  0  0  0  0  0
   10.0962   19.8026    8.7008 C   0  0  0  0  0  0  0  0  0  0  0  0
    6.9504   19.3576    9.1399 C   0  0  0  0  0  0  0  0  0  0  0  0
   10.0270   19.7562    7.3190 N   0  0  0  0  0  0  0  0  0  0  0  0
   10.8931   20.5210    9.2999 O   0  0  0  0  0  0  0  0  0  0  0  0
   10.9940   20.3672    6.4468 C   0  0  0  0  0  0  0  0  0  0  0  0
   11.3536   19.4294    5.2890 C   0  0  0  0  0  0  0  0  0  0  0  0
   11.5216   17.9645    5.7119 C   0  0  0  0  0  0  0  0  0  0  0  0
   11.8013   17.0453    4.5260 C   0  0  0  0  0  0  0  0  0  0  0  0
   13.2861   16.7568    4.4235 C   0  0  0  0  0  0  0  0  0  0  0  0
    7.0831   20.2239   10.0173 O   0  0  0  0  0  0  0  0  0  0  0  0
    5.7963   19.0630    8.5415 N   0  0  0  0  0  0  0  0  0  0  0  0
    4.5468   19.7444    8.9099 C   0  0  1  0  0  0  0  0  0  0  0  0
    4.4190   20.9724    8.0027 C   0  0  0  0  0  0  0  0  0  0  0  0
    3.3386   18.7643    8.8435 C   0  0  0  0  0  0  0  0  0  0  0  0
    3.6422   17.5837    8.4797 O   0  0  0  0  0  0  0  0  0  0  0  0
    2.2100   19.2460    9.1449 O   0  0  0  0  0  0  0  0  0  0  0  0
    4.1810   20.6118    6.5465 C   0  0  0  0  0  0  0  0  0  0  0  0
    5.2312   20.1984    5.7122 C   0  0  0  0  0  0  0  0  0  0  0  0
    4.9817   19.8054    4.3946 C   0  0  0  0  0  0  0  0  0  0  0  0
    3.6799   19.8267    3.8981 C   0  0  0  0  0  0  0  0  0  0  0  0
    2.6301   20.2375    4.7184 C   0  0  0  0  0  0  0  0  0  0  0  0
    2.8789   20.6267    6.0353 C   0  0  0  0  0  0  0  0  0  0  0  0
   14.4321   16.3095    9.4621 H   0  0  0  0  0  0  0  0  0  0  0  0
   12.3118   16.5810    8.2445 H   0  0  0  0  0  0  0  0  0  0  0  0
   10.3927   17.7478   11.9297 H   0  0  0  0  0  0  0  0  0  0  0  0
   12.5087   17.4352   13.1349 H   0  0  0  0  0  0  0  0  0  0  0  0
   14.8279   18.1245   13.3987 H   0  0  0  0  0  0  0  0  0  0  0  0
    9.2223   16.5612    9.5607 H   0  0  0  0  0  0  0  0  0  0  0  0
   10.1052   17.1631    8.1844 H   0  0  0  0  0  0  0  0  0  0  0  0
    9.0775   18.9875   10.4262 H   0  0  0  0  0  0  0  0  0  0  0  0
    7.8773   18.1240    7.8154 H   0  0  0  0  0  0  0  0  0  0  0  0
    9.3025   19.1819    6.9179 H   0  0  0  0  0  0  0  0  0  0  0  0
   11.8923   20.6378    7.0099 H   0  0  0  0  0  0  0  0  0  0  0  0
   10.5442   21.2862    6.0563 H   0  0  0  0  0  0  0  0  0  0  0  0
   12.2799   19.7825    4.8218 H   0  0  0  0  0  0  0  0  0  0  0  0
   10.5640   19.4886    4.5293 H   0  0  0  0  0  0  0  0  0  0  0  0
   10.6048   17.6098    6.1899 H   0  0  0  0  0  0  0  0  0  0  0  0
   12.3272   17.8920    6.4495 H   0  0  0  0  0  0  0  0  0  0  0  0
   11.4478   17.5002    3.5955 H   0  0  0  0  0  0  0  0  0  0  0  0
   11.2642   16.0962    4.6507 H   0  0  0  0  0  0  0  0  0  0  0  0
   13.4939   16.1045    3.5718 H   0  0  0  0  0  0  0  0  0  0  0  0
   13.6423   16.2606    5.3330 H   0  0  0  0  0  0  0  0  0  0  0  0
   13.8437   17.6887    4.2970 H   0  0  0  0  0  0  0  0  0  0  0  0
    5.6570   18.2637    7.9281 H   0  0  0  0  0  0  0  0  0  0  0  0
    4.6362   20.0807    9.9562 H   0  0  0  0  0  0  0  0  0  0  0  0
    5.3421   21.5732    8.0561 H   0  0  0  0  0  0  0  0  0  0  0  0
    3.6194   21.6347    8.3551 H   0  0  0  0  0  0  0  0  0  0  0  0
    6.2468   20.1655    6.0994 H   0  0  0  0  0  0  0  0  0  0  0  0
    5.7996   19.4800    3.7595 H   0  0  0  0  0  0  0  0  0  0  0  0
    3.4808   19.5191    2.8764 H   0  0  0  0  0  0  0  0  0  0  0  0
    1.6131   20.2463    4.3411 H   0  0  0  0  0  0  0  0  0  0  0  0
    2.0528   20.9186    6.6819 H   0  0  0  0  0  0  0  0  0  0  0  0
  1 10  1  0  0  0  0
  1  3  2  0  0  0  0
  1  2  1  0  0  0  0
  4 13  1  0  0  0  0
  4  9  2  0  0  0  0
  4  5  1  0  0  0  0
  5  6  2  0  0  0  0
  5 40  1  0  0  0  0
  6  7  1  0  0  0  0
  6 41  1  0  0  0  0
  7 11  1  0  0  0  0
  7  8  2  0  0  0  0
  8  9  1  0  0  0  0
  8 42  1  0  0  0  0
  9 43  1  0  0  0  0
 10 14  1  0  0  0  0
 10 13  1  0  0  0  0
 10 44  1  1  0  0  0
 11 12  1  0  0  0  0
 11 45  1  0  0  0  0
 11 46  1  0  0  0  0
 12 17  1  0  0  0  0
 12 18  1  0  0  0  0
 12 47  1  1  0  0  0
 14 16  2  0  0  0  0
 14 15  1  0  0  0  0
 17 19  1  0  0  0  0
 17 48  1  0  0  0  0
 18 20  1  0  0  0  0
 18 21  2  0  0  0  0
 19 28  1  0  0  0  0
 19 27  2  0  0  0  0
 20 22  1  0  0  0  0
 20 49  1  0  0  0  0
 22 23  1  0  0  0  0
 22 50  1  0  0  0  0
 22 51  1  0  0  0  0
 23 24  1  0  0  0  0
 23 52  1  0  0  0  0
 23 53  1  0  0  0  0
 24 25  1  0  0  0  0
 24 54  1  0  0  0  0
 24 55  1  0  0  0  0
 25 26  1  0  0  0  0
 25 56  1  0  0  0  0
 25 57  1  0  0  0  0
 26 58  1  0  0  0  0
 26 59  1  0  0  0  0
 26 60  1  0  0  0  0
 28 29  1  0  0  0  0
 28 61  1  0  0  0  0
 29 31  1  0  0  0  0
 29 30  1  0  0  0  0
 29 62  1  1  0  0  0
 30 34  1  0  0  0  0
 30 63  1  0  0  0  0
 30 64  1  0  0  0  0
 31 33  2  0  0  0  0
 31 32  1  0  0  0  0
 34 39  2  0  0  0  0
 34 35  1  0  0  0  0
 35 36  2  0  0  0  0
 35 65  1  0  0  0  0
 36 37  1  0  0  0  0
 36 66  1  0  0  0  0
 37 38  2  0  0  0  0
 37 67  1  0  0  0  0
 38 39  1  0  0  0  0
 38 68  1  0  0  0  0
 39 69  1  0  0  0  0
M  END
$$$$
