IPH
 OpenBabel04041913563D

 13 13  0  0  0  0  0  0  0  0999 V2000
    9.9651   35.4113   32.6198 C   0  0  0  0  0  0  0  0  0  0  0  0
   10.5588   36.4603   31.9238 C   0  0  0  0  0  0  0  0  0  0  0  0
   11.6558   37.1180   32.4812 C   0  0  0  0  0  0  0  0  0  0  0  0
   12.1483   36.7245   33.7277 C   0  0  0  0  0  0  0  0  0  0  0  0
   11.5410   35.6755   34.4192 C   0  0  0  0  0  0  0  0  0  0  0  0
   10.4424   35.0194   33.8657 C   0  0  0  0  0  0  0  0  0  0  0  0
    8.9017   34.7322   32.1009 O   0  0  0  0  0  0  0  0  0  0  0  0
   10.1852   36.7773   30.9559 H   0  0  0  0  0  0  0  0  0  0  0  0
   12.1292   37.9361   31.9453 H   0  0  0  0  0  0  0  0  0  0  0  0
   13.0064   37.2339   34.1572 H   0  0  0  0  0  0  0  0  0  0  0  0
   11.9249   35.3683   35.3889 H   0  0  0  0  0  0  0  0  0  0  0  0
    9.9632   34.2051   34.4007 H   0  0  0  0  0  0  0  0  0  0  0  0
    8.7144   35.0890   31.2176 H   0  0  0  0  0  0  0  0  0  0  0  0
  1  7  1  0  0  0  0
  1  6  2  0  0  0  0
  1  2  1  0  0  0  0
  2  3  2  0  0  0  0
  2  8  1  0  0  0  0
  3  4  1  0  0  0  0
  3  9  1  0  0  0  0
  4  5  2  0  0  0  0
  4 10  1  0  0  0  0
  5  6  1  0  0  0  0
  5 11  1  0  0  0  0
  6 12  1  0  0  0  0
  7 13  1  0  0  0  0
M  END
$$$$
