IPO
 OpenBabel04041915053D

 26 26  0  0  1  0  0  0  0  0999 V2000
   32.0306   -1.0414   41.7256 C   0  0  0  0  0  0  0  0  0  0  0  0
   31.9355    0.1381   40.9772 C   0  0  0  0  0  0  0  0  0  0  0  0
   30.9759    1.0964   41.3048 C   0  0  0  0  0  0  0  0  0  0  0  0
   30.1234    0.8840   42.3877 C   0  0  0  0  0  0  0  0  0  0  0  0
   28.6619    2.2833   42.8464 I   0  0  0  0  0  0  0  0  0  0  0  0
   30.2381   -0.2705   43.1626 C   0  0  0  0  0  0  0  0  0  0  0  0
   31.1922   -1.2328   42.8309 C   0  0  0  0  0  0  0  0  0  0  0  0
   33.0317   -2.0898   41.3337 C   0  0  0  0  0  0  0  0  0  0  0  0
   34.4311   -1.7556   41.8594 C   0  0  1  0  0  0  0  0  0  0  0  0
   34.4858   -2.1824   43.2951 N   0  3  0  0  0  0  0  0  0  0  0  0
   35.4338   -2.5538   41.0467 C   0  0  0  0  0  0  0  0  0  0  0  0
   35.7049   -3.7098   41.4204 O   0  0  0  0  0  0  0  0  0  0  0  0
   35.8307   -1.9864   39.8726 N   0  0  0  0  0  0  0  0  0  0  0  0
   36.4944   -2.8544   38.9749 O   0  0  0  0  0  0  0  0  0  0  0  0
   32.5838    0.3119   40.1190 H   0  0  0  0  0  0  0  0  0  0  0  0
   30.8907    1.9967   40.6994 H   0  0  0  0  0  0  0  0  0  0  0  0
   29.5759   -0.4367   44.0107 H   0  0  0  0  0  0  0  0  0  0  0  0
   31.2456   -2.1405   43.4287 H   0  0  0  0  0  0  0  0  0  0  0  0
   33.0418   -2.1802   40.2392 H   0  0  0  0  0  0  0  0  0  0  0  0
   32.6997   -3.0657   41.7121 H   0  0  0  0  0  0  0  0  0  0  0  0
   34.6465   -0.6772   41.8332 H   0  0  0  0  0  0  0  0  0  0  0  0
   35.4268   -2.0194   43.6830 H   0  0  0  0  0  0  0  0  0  0  0  0
   33.7835   -1.7043   43.8649 H   0  0  0  0  0  0  0  0  0  0  0  0
   35.9951   -0.9830   39.7193 H   0  0  0  0  0  0  0  0  0  0  0  0
   35.7823   -3.4696   38.7110 H   0  0  0  0  0  0  0  0  0  0  0  0
   34.3404   -3.2038   43.3465 H   0  0  0  0  0  0  0  0  0  0  0  0
  1  8  1  0  0  0  0
  1  7  2  0  0  0  0
  1  2  1  0  0  0  0
  2  3  2  0  0  0  0
  2 15  1  0  0  0  0
  3  4  1  0  0  0  0
  3 16  1  0  0  0  0
  4  6  2  0  0  0  0
  4  5  1  0  0  0  0
  6  7  1  0  0  0  0
  6 17  1  0  0  0  0
  7 18  1  0  0  0  0
  8  9  1  0  0  0  0
  8 19  1  0  0  0  0
  8 20  1  0  0  0  0
  9 11  1  0  0  0  0
  9 10  1  0  0  0  0
  9 21  1  6  0  0  0
 10 22  1  0  0  0  0
 10 23  1  0  0  0  0
 10 26  1  0  0  0  0
 11 13  1  0  0  0  0
 11 12  2  0  0  0  0
 13 14  1  0  0  0  0
 13 24  1  0  0  0  0
 14 25  1  0  0  0  0
M  CHG  1  10   1
M  END
$$$$
