IPZ
 OpenBabel04041916403D

 23 23  0  0  0  0  0  0  0  0999 V2000
   48.4825   25.6412   42.1396 C   0  0  0  0  0  0  0  0  0  0  0  0
   48.9678   24.8369   40.9381 C   0  0  0  0  0  0  0  0  0  0  0  0
   47.7787   24.2109   40.2161 C   0  0  0  0  0  0  0  0  0  0  0  0
   49.9732   23.7666   41.3390 C   0  0  0  0  0  0  0  0  0  0  0  0
   49.7814   23.0836   42.5024 N   0  0  0  0  0  0  0  0  0  0  0  0
   50.6934   22.1215   42.7839 C   0  0  0  0  0  0  0  0  0  0  0  0
   51.7434   21.8296   41.9278 C   0  0  0  0  0  0  0  0  0  0  0  0
   51.9486   22.4917   40.7659 N   0  0  0  0  0  0  0  0  0  0  0  0
   51.0477   23.4651   40.4905 C   0  0  0  0  0  0  0  0  0  0  0  0
   51.1475   24.1830   39.3117 O   0  0  0  0  0  0  0  0  0  0  0  0
   52.4142   24.0879   38.6853 C   0  0  0  0  0  0  0  0  0  0  0  0
   47.7693   26.4123   41.8288 H   0  0  0  0  0  0  0  0  0  0  0  0
   49.3221   26.1363   42.6386 H   0  0  0  0  0  0  0  0  0  0  0  0
   47.9813   24.9966   42.8692 H   0  0  0  0  0  0  0  0  0  0  0  0
   49.4413   25.5535   40.2538 H   0  0  0  0  0  0  0  0  0  0  0  0
   48.1057   23.6430   39.3379 H   0  0  0  0  0  0  0  0  0  0  0  0
   47.0805   24.9802   39.8764 H   0  0  0  0  0  0  0  0  0  0  0  0
   47.2344   23.5281   40.8786 H   0  0  0  0  0  0  0  0  0  0  0  0
   50.5604   21.5889   43.7180 H   0  0  0  0  0  0  0  0  0  0  0  0
   52.4598   21.0480   42.1654 H   0  0  0  0  0  0  0  0  0  0  0  0
   52.3890   24.7212   37.7919 H   0  0  0  0  0  0  0  0  0  0  0  0
   52.6185   23.0635   38.3627 H   0  0  0  0  0  0  0  0  0  0  0  0
   53.2079   24.4648   39.3401 H   0  0  0  0  0  0  0  0  0  0  0  0
  1  2  1  0  0  0  0
  1 12  1  0  0  0  0
  1 13  1  0  0  0  0
  1 14  1  0  0  0  0
  2  3  1  0  0  0  0
  2  4  1  0  0  0  0
  2 15  1  0  0  0  0
  3 16  1  0  0  0  0
  3 17  1  0  0  0  0
  3 18  1  0  0  0  0
  4  5  2  0  0  0  0
  4  9  1  0  0  0  0
  5  6  1  0  0  0  0
  6  7  2  0  0  0  0
  6 19  1  0  0  0  0
  7  8  1  0  0  0  0
  7 20  1  0  0  0  0
  8  9  2  0  0  0  0
  9 10  1  0  0  0  0
 10 11  1  0  0  0  0
 11 21  1  0  0  0  0
 11 22  1  0  0  0  0
 11 23  1  0  0  0  0
M  END
$$$$
