IQS
 OpenBabel04041917483D

 34 35  0  0  0  0  0  0  0  0999 V2000
    6.9612   10.1791    2.9668 C   0  0  0  0  0  0  0  0  0  0  0  0
    7.1301   10.1707    1.5768 C   0  0  0  0  0  0  0  0  0  0  0  0
    6.0316   10.0063    0.7304 C   0  0  0  0  0  0  0  0  0  0  0  0
    4.7565    9.8555    1.2763 C   0  0  0  0  0  0  0  0  0  0  0  0
    4.5824    9.8578    2.6677 C   0  0  0  0  0  0  0  0  0  0  0  0
    3.3222    9.7056    3.2447 C   0  0  0  0  0  0  0  0  0  0  0  0
    3.0951    9.6801    4.5813 N   0  0  0  0  0  0  0  0  0  0  0  0
    4.1552    9.8424    5.3841 C   0  0  0  0  0  0  0  0  0  0  0  0
    5.4429   10.0044    4.9237 C   0  0  0  0  0  0  0  0  0  0  0  0
    5.6860   10.0205    3.5444 C   0  0  0  0  0  0  0  0  0  0  0  0
    8.3805   10.4808    3.9875 S   0  0  0  0  0  0  0  0  0  0  0  0
    8.0656   11.4952    4.9734 O   0  0  0  0  0  0  0  0  0  0  0  0
    9.5156   10.6511    3.1151 O   0  0  0  0  0  0  0  0  0  0  0  0
    8.5595    9.0428    4.8526 N   0  0  0  0  0  0  0  0  0  0  0  0
    8.9824    7.7526    4.3125 C   0  0  0  0  0  0  0  0  0  0  0  0
    9.9700    7.8736    3.1525 C   0  0  0  0  0  0  0  0  0  0  0  0
   11.2073    7.0867    3.3783 N   0  3  0  0  0  0  0  0  0  0  0  0
   12.3709    7.9888    3.6533 C   0  0  0  0  0  0  0  0  0  0  0  0
    8.1084   10.3181    1.1242 H   0  0  0  0  0  0  0  0  0  0  0  0
    6.1593   10.0251   -0.3469 H   0  0  0  0  0  0  0  0  0  0  0  0
    3.9027    9.7418    0.6051 H   0  0  0  0  0  0  0  0  0  0  0  0
    2.4312    9.5892    2.6319 H   0  0  0  0  0  0  0  0  0  0  0  0
    3.9543    9.8416    6.4547 H   0  0  0  0  0  0  0  0  0  0  0  0
    6.2223   10.1387    5.6637 H   0  0  0  0  0  0  0  0  0  0  0  0
    8.1450    9.0554    5.7884 H   0  0  0  0  0  0  0  0  0  0  0  0
    8.1246    7.1368    4.0204 H   0  0  0  0  0  0  0  0  0  0  0  0
    9.4601    7.2249    5.1516 H   0  0  0  0  0  0  0  0  0  0  0  0
   10.3603    8.8654    3.0428 H   0  0  0  0  0  0  0  0  0  0  0  0
    9.5156    7.5900    2.2006 H   0  0  0  0  0  0  0  0  0  0  0  0
   11.0984    6.4228    4.1553 H   0  0  0  0  0  0  0  0  0  0  0  0
   13.2448    7.3675    3.8094 H   0  0  0  0  0  0  0  0  0  0  0  0
   12.1322    8.5766    4.5578 H   0  0  0  0  0  0  0  0  0  0  0  0
   12.4993    8.6506    2.7923 H   0  0  0  0  0  0  0  0  0  0  0  0
   11.4008    6.5272    2.5333 H   0  0  0  0  0  0  0  0  0  0  0  0
  1 11  1  0  0  0  0
  1 10  2  0  0  0  0
  1  2  1  0  0  0  0
  2  3  2  0  0  0  0
  2 19  1  0  0  0  0
  3  4  1  0  0  0  0
  3 20  1  0  0  0  0
  4  5  2  0  0  0  0
  4 21  1  0  0  0  0
  5 10  1  0  0  0  0
  5  6  1  0  0  0  0
  6  7  2  0  0  0  0
  6 22  1  0  0  0  0
  7  8  1  0  0  0  0
  8  9  2  0  0  0  0
  8 23  1  0  0  0  0
  9 10  1  0  0  0  0
  9 24  1  0  0  0  0
 11 14  1  0  0  0  0
 11 13  2  0  0  0  0
 11 12  2  0  0  0  0
 14 15  1  0  0  0  0
 14 25  1  0  0  0  0
 15 16  1  0  0  0  0
 15 26  1  0  0  0  0
 15 27  1  0  0  0  0
 16 17  1  0  0  0  0
 16 28  1  0  0  0  0
 16 29  1  0  0  0  0
 17 18  1  0  0  0  0
 17 30  1  0  0  0  0
 17 34  1  0  0  0  0
 18 31  1  0  0  0  0
 18 32  1  0  0  0  0
 18 33  1  0  0  0  0
M  CHG  1  17   1
M  END
$$$$
