IVV
 OpenBabel04041916233D

 80 79  0  0  1  0  0  0  0  0999 V2000
   15.9132    4.2767   17.6586 C   0  0  0  0  0  0  0  0  0  0  0  0
   14.6794    3.7532   18.3934 C   0  0  0  0  0  0  0  0  0  0  0  0
   14.2750    4.9165   19.2748 C   0  0  0  0  0  0  0  0  0  0  0  0
   13.4873    3.5354   17.4788 C   0  0  0  0  0  0  0  0  0  0  0  0
   17.0186    4.4857   18.6595 C   0  0  0  0  0  0  0  0  0  0  0  0
   17.1381    3.7665   19.6505 O   0  0  0  0  0  0  0  0  0  0  0  0
   17.8879    5.5091   18.4693 N   0  0  0  0  0  0  0  0  0  0  0  0
   19.0242    5.6600   19.3744 C   0  0  2  0  0  0  0  0  0  0  0  0
   18.8758    7.0080   20.1027 C   0  0  0  0  0  0  0  0  0  0  0  0
   18.1353    7.8706   19.7231 O   0  0  0  0  0  0  0  0  0  0  0  0
   20.3112    5.5969   18.5541 C   0  0  0  0  0  0  0  0  0  0  0  0
   20.3818    4.2308   17.8773 C   0  0  0  0  0  0  0  0  0  0  0  0
   20.2628    6.6364   17.4356 C   0  0  0  0  0  0  0  0  0  0  0  0
   19.7507    7.1309   21.1764 N   0  0  0  0  0  0  0  0  0  0  0  0
   19.8186    8.3961   21.8937 C   0  0  2  0  0  0  0  0  0  0  0  0
   21.2979    8.7144   22.0426 C   0  0  0  0  0  0  0  0  0  0  0  0
   21.9656    8.2504   22.9691 O   0  0  0  0  0  0  0  0  0  0  0  0
   19.1619    8.3396   23.2838 C   0  0  0  0  0  0  0  0  0  0  0  0
   19.1339    9.7406   23.8983 C   0  0  0  0  0  0  0  0  0  0  0  0
   17.7219    7.8657   23.2017 C   0  0  0  0  0  0  0  0  0  0  0  0
   21.8257    9.4405   21.0184 N   0  0  0  0  0  0  0  0  0  0  0  0
   23.2315    9.8511   20.9935 C   0  0  1  0  0  0  0  0  0  0  0  0
   23.8761    9.3646   19.6797 C   0  0  0  0  0  0  0  0  0  0  0  0
   23.6998    7.8489   19.4239 C   0  0  0  0  0  0  0  0  0  0  0  0
   24.3140    7.5082   18.0718 C   0  0  0  0  0  0  0  0  0  0  0  0
   24.2969    6.9629   20.5144 C   0  0  0  0  0  0  0  0  0  0  0  0
   23.3178   11.6924   21.1673 P   0  0  2  0  0  0  0  0  0  0  0  0
   22.3742   12.2519   20.1136 O   0  0  0  0  0  0  0  0  0  0  0  0
   24.7739   12.0748   21.1106 O   0  0  0  0  0  0  0  0  0  0  0  0
   22.6473   12.1085   22.8356 C   0  0  0  0  0  0  0  0  0  0  0  0
   23.6816   11.9476   23.9389 C   0  0  0  0  0  0  0  0  0  0  0  0
   23.9723   10.8534   24.3743 O   0  0  0  0  0  0  0  0  0  0  0  0
   24.2680   13.1035   24.4078 O   0  0  0  0  0  0  0  0  0  0  0  0
   25.4484   12.9033   25.2463 C   0  0  0  0  0  0  0  0  0  0  0  0
   26.5877   13.7861   24.7582 C   0  0  0  0  0  0  0  0  0  0  0  0
   15.6457    5.2164   17.1647 H   0  0  0  0  0  0  0  0  0  0  0  0
   16.2403    3.5510   16.9170 H   0  0  0  0  0  0  0  0  0  0  0  0
   14.9030    2.8322   18.9627 H   0  0  0  0  0  0  0  0  0  0  0  0
   13.3949    4.6664   19.8562 H   0  0  0  0  0  0  0  0  0  0  0  0
   14.0528    5.7751   18.6248 H   0  0  0  0  0  0  0  0  0  0  0  0
   15.0917    5.1918   19.9379 H   0  0  0  0  0  0  0  0  0  0  0  0
   13.6505    2.6957   16.8064 H   0  0  0  0  0  0  0  0  0  0  0  0
   13.3168    4.4442   16.8891 H   0  0  0  0  0  0  0  0  0  0  0  0
   12.5886    3.3485   18.0823 H   0  0  0  0  0  0  0  0  0  0  0  0
   17.7709    6.1470   17.6976 H   0  0  0  0  0  0  0  0  0  0  0  0
   19.0318    4.8678   20.1490 H   0  0  0  0  0  0  0  0  0  0  0  0
   21.1980    5.7647   19.1846 H   0  0  0  0  0  0  0  0  0  0  0  0
   21.2755    4.1575   17.2524 H   0  0  0  0  0  0  0  0  0  0  0  0
   19.5076    4.0885   17.2250 H   0  0  0  0  0  0  0  0  0  0  0  0
   20.3904    3.4276   18.6176 H   0  0  0  0  0  0  0  0  0  0  0  0
   20.2106    7.6488   17.8401 H   0  0  0  0  0  0  0  0  0  0  0  0
   19.3812    6.4713   16.8043 H   0  0  0  0  0  0  0  0  0  0  0  0
   21.1372    6.5458   16.7917 H   0  0  0  0  0  0  0  0  0  0  0  0
   20.3656    6.3718   21.4284 H   0  0  0  0  0  0  0  0  0  0  0  0
   19.3132    9.1684   21.3084 H   0  0  0  0  0  0  0  0  0  0  0  0
   19.7167    7.6542   23.9388 H   0  0  0  0  0  0  0  0  0  0  0  0
   18.6645    9.7219   24.8884 H   0  0  0  0  0  0  0  0  0  0  0  0
   18.5589   10.4250   23.2590 H   0  0  0  0  0  0  0  0  0  0  0  0
   20.1467   10.1319   24.0015 H   0  0  0  0  0  0  0  0  0  0  0  0
   17.6794    6.8606   22.7791 H   0  0  0  0  0  0  0  0  0  0  0  0
   17.1462    8.5501   22.5697 H   0  0  0  0  0  0  0  0  0  0  0  0
   17.2793    7.8497   24.2033 H   0  0  0  0  0  0  0  0  0  0  0  0
   21.2426    9.7684   20.2528 H   0  0  0  0  0  0  0  0  0  0  0  0
   23.7562    9.4157   21.8421 H   0  0  0  0  0  0  0  0  0  0  0  0
   24.9487    9.6134   19.6856 H   0  0  0  0  0  0  0  0  0  0  0  0
   23.4337    9.9103   18.8267 H   0  0  0  0  0  0  0  0  0  0  0  0
   22.6324    7.6114   19.3767 H   0  0  0  0  0  0  0  0  0  0  0  0
   24.2187    6.4386   17.8540 H   0  0  0  0  0  0  0  0  0  0  0  0
   25.3761    7.7787   18.0593 H   0  0  0  0  0  0  0  0  0  0  0  0
   23.8001    8.0728   17.2864 H   0  0  0  0  0  0  0  0  0  0  0  0
   23.8428    7.1923   21.4817 H   0  0  0  0  0  0  0  0  0  0  0  0
   25.3783    7.1126   20.5889 H   0  0  0  0  0  0  0  0  0  0  0  0
   24.1061    5.9007   20.3005 H   0  0  0  0  0  0  0  0  0  0  0  0
   21.7853   11.4514   23.0253 H   0  0  0  0  0  0  0  0  0  0  0  0
   22.2677   13.1363   22.7908 H   0  0  0  0  0  0  0  0  0  0  0  0
   25.7930   11.8601   25.2252 H   0  0  0  0  0  0  0  0  0  0  0  0
   25.2207   13.1754   26.2882 H   0  0  0  0  0  0  0  0  0  0  0  0
   27.4816   13.6510   25.3799 H   0  0  0  0  0  0  0  0  0  0  0  0
   26.2891   14.8402   24.7928 H   0  0  0  0  0  0  0  0  0  0  0  0
   26.8345   13.5329   23.7218 H   0  0  0  0  0  0  0  0  0  0  0  0
  1  2  1  0  0  0  0
  1  5  1  0  0  0  0
  1 36  1  0  0  0  0
  1 37  1  0  0  0  0
  2  3  1  0  0  0  0
  2  4  1  0  0  0  0
  2 38  1  0  0  0  0
  3 39  1  0  0  0  0
  3 40  1  0  0  0  0
  3 41  1  0  0  0  0
  4 42  1  0  0  0  0
  4 43  1  0  0  0  0
  4 44  1  0  0  0  0
  5  6  2  0  0  0  0
  5  7  1  0  0  0  0
  7  8  1  0  0  0  0
  7 45  1  0  0  0  0
  8 11  1  0  0  0  0
  8  9  1  0  0  0  0
  8 46  1  1  0  0  0
  9 10  2  0  0  0  0
  9 14  1  0  0  0  0
 11 13  1  0  0  0  0
 11 12  1  0  0  0  0
 11 47  1  0  0  0  0
 12 48  1  0  0  0  0
 12 49  1  0  0  0  0
 12 50  1  0  0  0  0
 13 51  1  0  0  0  0
 13 52  1  0  0  0  0
 13 53  1  0  0  0  0
 14 15  1  0  0  0  0
 14 54  1  0  0  0  0
 15 18  1  0  0  0  0
 15 16  1  0  0  0  0
 15 55  1  6  0  0  0
 16 17  2  0  0  0  0
 16 21  1  0  0  0  0
 18 20  1  0  0  0  0
 18 19  1  0  0  0  0
 18 56  1  0  0  0  0
 19 57  1  0  0  0  0
 19 58  1  0  0  0  0
 19 59  1  0  0  0  0
 20 60  1  0  0  0  0
 20 61  1  0  0  0  0
 20 62  1  0  0  0  0
 21 22  1  0  0  0  0
 21 63  1  0  0  0  0
 22 23  1  0  0  0  0
 22 27  1  0  0  0  0
 22 64  1  1  0  0  0
 23 24  1  0  0  0  0
 23 65  1  0  0  0  0
 23 66  1  0  0  0  0
 24 25  1  0  0  0  0
 24 26  1  0  0  0  0
 24 67  1  0  0  0  0
 25 68  1  0  0  0  0
 25 69  1  0  0  0  0
 25 70  1  0  0  0  0
 26 71  1  0  0  0  0
 26 72  1  0  0  0  0
 26 73  1  0  0  0  0
 27 28  2  6  0  0  0
 27 29  1  0  0  0  0
 27 30  1  0  0  0  0
 30 31  1  0  0  0  0
 30 74  1  0  0  0  0
 30 75  1  0  0  0  0
 31 32  2  0  0  0  0
 31 33  1  0  0  0  0
 33 34  1  0  0  0  0
 34 35  1  0  0  0  0
 34 76  1  0  0  0  0
 34 77  1  0  0  0  0
 35 78  1  0  0  0  0
 35 79  1  0  0  0  0
 35 80  1  0  0  0  0
M  END
$$$$
