JE2
 OpenBabel04041915473D

 78 81  0  0  1  0  0  0  0  0999 V2000
   11.0948   17.6869   19.1944 C   0  0  0  0  0  0  0  0  0  0  0  0
   11.1694   18.3384   17.9555 C   0  0  0  0  0  0  0  0  0  0  0  0
   12.2196   19.2284   17.7041 C   0  0  0  0  0  0  0  0  0  0  0  0
   13.2147   19.4668   18.6827 C   0  0  0  0  0  0  0  0  0  0  0  0
   13.1474   18.8134   19.9346 C   0  0  0  0  0  0  0  0  0  0  0  0
   12.0704   17.9253   20.1627 C   0  0  0  0  0  0  0  0  0  0  0  0
   14.1632   19.0307   21.0262 C   0  0  0  0  0  0  0  0  0  0  0  0
   14.3278   20.4073   18.3291 C   0  0  0  0  0  0  0  0  0  0  0  0
   13.8884   21.6500   17.8837 N   0  0  0  0  0  0  0  0  0  0  0  0
   14.8244   22.6972   17.4463 C   0  0  1  0  0  0  0  0  0  0  0  0
   14.2486   23.3356   16.1607 C   0  0  0  0  0  0  0  0  0  0  0  0
   15.0260   23.6712   18.6165 C   0  0  1  0  0  0  0  0  0  0  0  0
   16.3423   24.4559   18.5130 C   0  0  0  0  0  0  0  0  0  0  0  0
   17.4972   23.8408   18.9649 N   0  0  0  0  0  0  0  0  0  0  0  0
   18.7779   24.5749   18.8843 C   0  0  1  0  0  0  0  0  0  0  0  0
   19.6889   24.1526   20.0707 C   0  0  0  0  0  0  0  0  0  0  0  0
   19.1714   22.4412   20.3821 S   0  0  0  0  0  0  0  0  0  0  0  0
   17.4729   22.8778   20.0515 C   0  0  0  0  0  0  0  0  0  0  0  0
   13.9921   22.2979   15.0712 C   0  0  0  0  0  0  0  0  0  0  0  0
   15.0580   21.7185   14.3608 C   0  0  0  0  0  0  0  0  0  0  0  0
   14.8142   20.7450   13.3850 C   0  0  0  0  0  0  0  0  0  0  0  0
   13.4952   20.3322   13.1117 C   0  0  0  0  0  0  0  0  0  0  0  0
   12.4298   20.8978   13.8149 C   0  0  0  0  0  0  0  0  0  0  0  0
   12.6753   21.8780   14.7948 C   0  0  0  0  0  0  0  0  0  0  0  0
   13.9173   24.5740   18.6645 O   0  0  0  0  0  0  0  0  0  0  0  0
   16.3358   25.6295   18.1403 O   0  0  0  0  0  0  0  0  0  0  0  0
   19.3837   24.9549   21.3516 C   0  0  0  0  0  0  0  0  0  0  0  0
   21.1787   24.1689   19.7934 C   0  0  0  0  0  0  0  0  0  0  0  0
   19.3848   24.2905   17.4914 C   0  0  0  0  0  0  0  0  0  0  0  0
   20.2246   25.2789   17.0244 N   0  0  0  0  0  0  0  0  0  0  0  0
   20.8615   25.1662   15.7313 C   0  0  0  0  0  0  0  0  0  0  0  0
   19.1637   23.2558   16.8678 O   0  0  0  0  0  0  0  0  0  0  0  0
   11.9783   17.2788   21.3677 O   0  0  0  0  0  0  0  0  0  0  0  0
   15.4935   20.1207   18.4243 O   0  0  0  0  0  0  0  0  0  0  0  0
   20.6263   26.3927   14.8780 C   0  0  0  0  0  0  0  0  0  0  0  0
   21.7007   27.2888   14.7018 C   0  0  0  0  0  0  0  0  0  0  0  0
   21.5546   28.4407   13.9185 C   0  0  0  0  0  0  0  0  0  0  0  0
   20.3247   28.7068   13.3064 C   0  0  0  0  0  0  0  0  0  0  0  0
   19.2477   27.8252   13.4757 C   0  0  0  0  0  0  0  0  0  0  0  0
   19.3809   26.6647   14.2585 C   0  0  0  0  0  0  0  0  0  0  0  0
   18.1771   25.7619   14.3946 C   0  0  0  0  0  0  0  0  0  0  0  0
   10.2757   16.9958   19.3815 H   0  0  0  0  0  0  0  0  0  0  0  0
   10.4115   18.1519   17.1943 H   0  0  0  0  0  0  0  0  0  0  0  0
   12.2746   19.7225   16.7317 H   0  0  0  0  0  0  0  0  0  0  0  0
   14.9351   19.7440   20.7243 H   0  0  0  0  0  0  0  0  0  0  0  0
   14.6600   18.0863   21.2833 H   0  0  0  0  0  0  0  0  0  0  0  0
   13.6831   19.4283   21.9305 H   0  0  0  0  0  0  0  0  0  0  0  0
   12.9086   21.8639   17.8922 H   0  0  0  0  0  0  0  0  0  0  0  0
   15.7876   22.2428   17.2007 H   0  0  0  0  0  0  0  0  0  0  0  0
   14.9440   24.0912   15.7726 H   0  0  0  0  0  0  0  0  0  0  0  0
   13.2963   23.8431   16.3810 H   0  0  0  0  0  0  0  0  0  0  0  0
   15.0222   23.1103   19.5618 H   0  0  0  0  0  0  0  0  0  0  0  0
   18.5746   25.6512   18.9499 H   0  0  0  0  0  0  0  0  0  0  0  0
   16.8659   22.0058   19.8549 H   0  0  0  0  0  0  0  0  0  0  0  0
   17.0620   23.4108   20.9240 H   0  0  0  0  0  0  0  0  0  0  0  0
   16.0849   22.0253   14.5680 H   0  0  0  0  0  0  0  0  0  0  0  0
   15.6434   20.3023   12.8342 H   0  0  0  0  0  0  0  0  0  0  0  0
   13.3061   19.5778   12.3528 H   0  0  0  0  0  0  0  0  0  0  0  0
   11.4066   20.5849   13.6137 H   0  0  0  0  0  0  0  0  0  0  0  0
   11.8433   22.3127   15.3462 H   0  0  0  0  0  0  0  0  0  0  0  0
   14.0607   25.1707   19.4161 H   0  0  0  0  0  0  0  0  0  0  0  0
   20.0163   24.6235   22.1886 H   0  0  0  0  0  0  0  0  0  0  0  0
   18.3383   24.8539   21.6725 H   0  0  0  0  0  0  0  0  0  0  0  0
   19.5717   26.0221   21.1881 H   0  0  0  0  0  0  0  0  0  0  0  0
   21.7505   23.8602   20.6782 H   0  0  0  0  0  0  0  0  0  0  0  0
   21.4978   25.1778   19.5170 H   0  0  0  0  0  0  0  0  0  0  0  0
   21.4265   23.4865   18.9749 H   0  0  0  0  0  0  0  0  0  0  0  0
   20.3663   26.1159   17.5748 H   0  0  0  0  0  0  0  0  0  0  0  0
   20.4953   24.2773   15.2082 H   0  0  0  0  0  0  0  0  0  0  0  0
   21.9379   25.0288   15.9038 H   0  0  0  0  0  0  0  0  0  0  0  0
   11.1905   16.7032   21.3647 H   0  0  0  0  0  0  0  0  0  0  0  0
   22.6658   27.0860   15.1738 H   0  0  0  0  0  0  0  0  0  0  0  0
   22.3914   29.1220   13.7878 H   0  0  0  0  0  0  0  0  0  0  0  0
   20.2071   29.6010   12.6988 H   0  0  0  0  0  0  0  0  0  0  0  0
   18.2949   28.0483   12.9904 H   0  0  0  0  0  0  0  0  0  0  0  0
   18.3946   24.8942   15.0178 H   0  0  0  0  0  0  0  0  0  0  0  0
   17.8592   25.3914   13.4119 H   0  0  0  0  0  0  0  0  0  0  0  0
   17.3401   26.3027   14.8538 H   0  0  0  0  0  0  0  0  0  0  0  0
  1  2  2  0  0  0  0
  1  6  1  0  0  0  0
  1 42  1  0  0  0  0
  2  3  1  0  0  0  0
  2 43  1  0  0  0  0
  3  4  2  0  0  0  0
  3 44  1  0  0  0  0
  4  5  1  0  0  0  0
  4  8  1  0  0  0  0
  5  6  2  0  0  0  0
  5  7  1  0  0  0  0
  6 33  1  0  0  0  0
  7 45  1  0  0  0  0
  7 46  1  0  0  0  0
  7 47  1  0  0  0  0
  8  9  1  0  0  0  0
  8 34  2  0  0  0  0
  9 10  1  0  0  0  0
  9 48  1  0  0  0  0
 10 11  1  0  0  0  0
 10 12  1  0  0  0  0
 10 49  1  6  0  0  0
 11 19  1  0  0  0  0
 11 50  1  0  0  0  0
 11 51  1  0  0  0  0
 12 13  1  0  0  0  0
 12 25  1  0  0  0  0
 12 52  1  1  0  0  0
 13 14  1  0  0  0  0
 13 26  2  0  0  0  0
 14 15  1  0  0  0  0
 14 18  1  0  0  0  0
 15 16  1  0  0  0  0
 15 29  1  0  0  0  0
 15 53  1  1  0  0  0
 16 17  1  0  0  0  0
 16 27  1  0  0  0  0
 16 28  1  0  0  0  0
 17 18  1  0  0  0  0
 18 54  1  0  0  0  0
 18 55  1  0  0  0  0
 19 20  2  0  0  0  0
 19 24  1  0  0  0  0
 20 21  1  0  0  0  0
 20 56  1  0  0  0  0
 21 22  2  0  0  0  0
 21 57  1  0  0  0  0
 22 23  1  0  0  0  0
 22 58  1  0  0  0  0
 23 24  2  0  0  0  0
 23 59  1  0  0  0  0
 24 60  1  0  0  0  0
 25 61  1  0  0  0  0
 27 62  1  0  0  0  0
 27 63  1  0  0  0  0
 27 64  1  0  0  0  0
 28 65  1  0  0  0  0
 28 66  1  0  0  0  0
 28 67  1  0  0  0  0
 29 30  1  0  0  0  0
 29 32  2  0  0  0  0
 30 31  1  0  0  0  0
 30 68  1  0  0  0  0
 31 35  1  0  0  0  0
 31 69  1  0  0  0  0
 31 70  1  0  0  0  0
 33 71  1  0  0  0  0
 35 36  2  0  0  0  0
 35 40  1  0  0  0  0
 36 37  1  0  0  0  0
 36 72  1  0  0  0  0
 37 38  2  0  0  0  0
 37 73  1  0  0  0  0
 38 39  1  0  0  0  0
 38 74  1  0  0  0  0
 39 40  2  0  0  0  0
 39 75  1  0  0  0  0
 40 41  1  0  0  0  0
 41 76  1  0  0  0  0
 41 77  1  0  0  0  0
 41 78  1  0  0  0  0
M  END
$$$$
