K44
 OpenBabel04041917593D

 24 26  0  0  0  0  0  0  0  0999 V2000
   22.7207    8.0895   18.0541 C   0  0  0  0  0  0  0  0  0  0  0  0
   21.6863    8.6953   18.8049 C   0  0  0  0  0  0  0  0  0  0  0  0
   21.3624    8.2354   20.1066 C   0  0  0  0  0  0  0  0  0  0  0  0
   23.4312    6.9933   18.5791 C   0  0  0  0  0  0  0  0  0  0  0  0
   23.6676    5.4664   20.5625 N   0  0  0  0  0  0  0  0  0  0  0  0
   23.1061    6.5245   19.8678 C   0  0  0  0  0  0  0  0  0  0  0  0
   22.0927    7.1471   20.6108 C   0  0  0  0  0  0  0  0  0  0  0  0
   22.1025    6.4453   21.7671 N   0  3  0  0  0  0  0  0  0  0  0  0
   23.0508    5.4767   21.7026 C   0  0  0  0  0  0  0  0  0  0  0  0
   23.0771    4.7385   22.8229 N   0  0  0  0  0  0  0  0  0  0  0  0
   23.5903    3.3905   22.7362 C   0  0  0  0  0  0  0  0  0  0  0  0
   21.3774    6.4120   23.0204 C   0  0  0  0  0  0  0  0  0  0  0  0
   21.9005    5.0844   23.6311 C   0  0  0  0  0  0  0  0  0  0  0  0
   24.8278    6.0930   17.6446 Br  0  0  0  0  0  0  0  0  0  0  0  0
   23.1903    8.7541   16.3152 Br  0  0  0  0  0  0  0  0  0  0  0  0
   20.6849   10.1561   18.0561 Br  0  0  0  0  0  0  0  0  0  0  0  0
   20.0055    9.0253   21.1800 Br  0  0  0  0  0  0  0  0  0  0  0  0
   23.5824    2.9062   23.7165 H   0  0  0  0  0  0  0  0  0  0  0  0
   24.6296    3.4067   22.3850 H   0  0  0  0  0  0  0  0  0  0  0  0
   23.0067    2.7780   22.0391 H   0  0  0  0  0  0  0  0  0  0  0  0
   20.3017    6.3964   22.8340 H   0  0  0  0  0  0  0  0  0  0  0  0
   21.6733    7.2846   23.6072 H   0  0  0  0  0  0  0  0  0  0  0  0
   22.1764    5.2150   24.6820 H   0  0  0  0  0  0  0  0  0  0  0  0
   21.1299    4.3070   23.5655 H   0  0  0  0  0  0  0  0  0  0  0  0
  1  2  2  0  0  0  0
  1  4  1  0  0  0  0
  1 15  1  0  0  0  0
  2  3  1  0  0  0  0
  2 16  1  0  0  0  0
  3  7  2  0  0  0  0
  3 17  1  0  0  0  0
  4  6  2  0  0  0  0
  4 14  1  0  0  0  0
  5  6  1  0  0  0  0
  5  9  1  0  0  0  0
  6  7  1  0  0  0  0
  7  8  1  0  0  0  0
  8  9  2  0  0  0  0
  8 12  1  0  0  0  0
  9 10  1  0  0  0  0
 10 11  1  0  0  0  0
 10 13  1  0  0  0  0
 11 18  1  0  0  0  0
 11 19  1  0  0  0  0
 11 20  1  0  0  0  0
 12 13  1  0  0  0  0
 12 21  1  0  0  0  0
 12 22  1  0  0  0  0
 13 23  1  0  0  0  0
 13 24  1  0  0  0  0
M  CHG  1   8   1
M  END
$$$$
