K57
 OpenBabel04041915473D

 74 76  0  0  1  0  0  0  0  0999 V2000
   10.8643   17.8093   18.9184 C   0  0  0  0  0  0  0  0  0  0  0  0
   10.8611   18.4927   17.6957 C   0  0  0  0  0  0  0  0  0  0  0  0
   11.9122   19.3738   17.3905 C   0  0  0  0  0  0  0  0  0  0  0  0
   12.9760   19.5728   18.2996 C   0  0  0  0  0  0  0  0  0  0  0  0
   12.9918   18.8779   19.5386 C   0  0  0  0  0  0  0  0  0  0  0  0
   11.9145   18.0029   19.8215 C   0  0  0  0  0  0  0  0  0  0  0  0
   14.0846   19.0347   20.5673 C   0  0  0  0  0  0  0  0  0  0  0  0
   14.1060   20.5082   17.8913 C   0  0  0  0  0  0  0  0  0  0  0  0
   13.7088   21.7942   17.5026 N   0  0  0  0  0  0  0  0  0  0  0  0
   14.6623   22.8522   17.0720 C   0  0  1  0  0  0  0  0  0  0  0  0
   14.3220   23.5192   15.7388 C   0  0  0  0  0  0  0  0  0  0  0  0
   14.8256   23.9035   18.1834 C   0  0  1  0  0  0  0  0  0  0  0  0
   16.1517   24.7251   18.1669 C   0  0  0  0  0  0  0  0  0  0  0  0
   17.2657   24.1124   18.7551 N   0  0  0  0  0  0  0  0  0  0  0  0
   18.5709   24.7849   18.6480 C   0  0  1  0  0  0  0  0  0  0  0  0
   19.5199   24.2014   19.7186 C   0  0  0  0  0  0  0  0  0  0  0  0
   19.0590   22.4468   19.8333 S   0  0  0  0  0  0  0  0  0  0  0  0
   17.3436   22.7692   19.3619 C   0  0  0  0  0  0  0  0  0  0  0  0
   14.1633   22.5331   14.6081 C   0  0  0  0  0  0  0  0  0  0  0  0
   15.2784   22.3295   13.7769 C   0  0  0  0  0  0  0  0  0  0  0  0
   15.2229   21.4211   12.7171 C   0  0  0  0  0  0  0  0  0  0  0  0
   14.0467   20.6998   12.4840 C   0  0  0  0  0  0  0  0  0  0  0  0
   12.9294   20.8916   13.3121 C   0  0  0  0  0  0  0  0  0  0  0  0
   12.9819   21.8065   14.3725 C   0  0  0  0  0  0  0  0  0  0  0  0
   13.6489   24.4989   18.7150 O   0  0  0  0  0  0  0  0  0  0  0  0
   16.2007   25.8800   17.7245 O   0  0  0  0  0  0  0  0  0  0  0  0
   19.2260   24.8190   21.0939 C   0  0  0  0  0  0  0  0  0  0  0  0
   21.0048   24.3141   19.4133 C   0  0  0  0  0  0  0  0  0  0  0  0
   19.0334   24.5864   17.1707 C   0  0  0  0  0  0  0  0  0  0  0  0
   19.5853   25.7180   16.6082 N   0  0  0  0  0  0  0  0  0  0  0  0
   20.0860   25.8870   15.2359 C   0  0  0  0  0  0  0  0  0  0  0  0
   18.8962   23.5256   16.5734 O   0  0  0  0  0  0  0  0  0  0  0  0
   11.8975   17.3256   21.0144 O   0  0  0  0  0  0  0  0  0  0  0  0
   15.2481   20.1642   17.9081 O   0  0  0  0  0  0  0  0  0  0  0  0
   20.5694   27.3445   15.1430 C   0  0  0  0  0  0  0  0  0  0  0  0
   18.9848   25.6613   14.1954 C   0  0  0  0  0  0  0  0  0  0  0  0
   21.2752   24.9676   14.9403 C   0  0  0  0  0  0  0  0  0  0  0  0
   10.0466   17.1301   19.1541 H   0  0  0  0  0  0  0  0  0  0  0  0
   10.0426   18.3377   16.9886 H   0  0  0  0  0  0  0  0  0  0  0  0
   11.8975   19.8878   16.4278 H   0  0  0  0  0  0  0  0  0  0  0  0
   14.8554   19.7398   20.2425 H   0  0  0  0  0  0  0  0  0  0  0  0
   14.5743   18.0708   20.7630 H   0  0  0  0  0  0  0  0  0  0  0  0
   13.6768   19.4101   21.5168 H   0  0  0  0  0  0  0  0  0  0  0  0
   12.7263   22.0235   17.5615 H   0  0  0  0  0  0  0  0  0  0  0  0
   15.6239   22.3418   16.9636 H   0  0  0  0  0  0  0  0  0  0  0  0
   15.1573   24.2027   15.4961 H   0  0  0  0  0  0  0  0  0  0  0  0
   13.4277   24.1452   15.8371 H   0  0  0  0  0  0  0  0  0  0  0  0
   15.0543   23.2678   18.9621 H   0  0  0  0  0  0  0  0  0  0  0  0
   18.4416   25.8599   18.8303 H   0  0  0  0  0  0  0  0  0  0  0  0
   17.0110   21.9919   18.6751 H   0  0  0  0  0  0  0  0  0  0  0  0
   16.7272   22.7485   20.2686 H   0  0  0  0  0  0  0  0  0  0  0  0
   16.1895   22.8901   13.9690 H   0  0  0  0  0  0  0  0  0  0  0  0
   16.0969   21.2820   12.0827 H   0  0  0  0  0  0  0  0  0  0  0  0
   14.0054   19.9915   11.6588 H   0  0  0  0  0  0  0  0  0  0  0  0
   12.0172   20.3198   13.1177 H   0  0  0  0  0  0  0  0  0  0  0  0
   12.1055   21.9432   15.0059 H   0  0  0  0  0  0  0  0  0  0  0  0
   13.8224   24.4714   19.6736 H   0  0  0  0  0  0  0  0  0  0  0  0
   19.8860   24.3976   21.8645 H   0  0  0  0  0  0  0  0  0  0  0  0
   18.1865   24.6426   21.4034 H   0  0  0  0  0  0  0  0  0  0  0  0
   19.3883   25.9033   21.0658 H   0  0  0  0  0  0  0  0  0  0  0  0
   21.6088   23.8777   20.2217 H   0  0  0  0  0  0  0  0  0  0  0  0
   21.2951   25.3651   19.3074 H   0  0  0  0  0  0  0  0  0  0  0  0
   21.2557   23.7906   18.4856 H   0  0  0  0  0  0  0  0  0  0  0  0
   19.6157   26.5415   17.1885 H   0  0  0  0  0  0  0  0  0  0  0  0
   11.1017   16.7637   21.0578 H   0  0  0  0  0  0  0  0  0  0  0  0
   20.9766   27.5697   14.1525 H   0  0  0  0  0  0  0  0  0  0  0  0
   21.3500   27.5302   15.8939 H   0  0  0  0  0  0  0  0  0  0  0  0
   19.7390   28.0334   15.3478 H   0  0  0  0  0  0  0  0  0  0  0  0
   19.3702   25.7914   13.1749 H   0  0  0  0  0  0  0  0  0  0  0  0
   18.1614   26.3704   14.3426 H   0  0  0  0  0  0  0  0  0  0  0  0
   18.5803   24.6474   14.2783 H   0  0  0  0  0  0  0  0  0  0  0  0
   21.6464   25.1151   13.9163 H   0  0  0  0  0  0  0  0  0  0  0  0
   20.9883   23.9167   15.0481 H   0  0  0  0  0  0  0  0  0  0  0  0
   22.1025   25.1690   15.6321 H   0  0  0  0  0  0  0  0  0  0  0  0
  1  2  2  0  0  0  0
  1  6  1  0  0  0  0
  1 38  1  0  0  0  0
  2  3  1  0  0  0  0
  2 39  1  0  0  0  0
  3  4  2  0  0  0  0
  3 40  1  0  0  0  0
  4  5  1  0  0  0  0
  4  8  1  0  0  0  0
  5  6  2  0  0  0  0
  5  7  1  0  0  0  0
  6 33  1  0  0  0  0
  7 41  1  0  0  0  0
  7 42  1  0  0  0  0
  7 43  1  0  0  0  0
  8  9  1  0  0  0  0
  8 34  2  0  0  0  0
  9 10  1  0  0  0  0
  9 44  1  0  0  0  0
 10 11  1  0  0  0  0
 10 12  1  0  0  0  0
 10 45  1  6  0  0  0
 11 19  1  0  0  0  0
 11 46  1  0  0  0  0
 11 47  1  0  0  0  0
 12 13  1  0  0  0  0
 12 25  1  0  0  0  0
 12 48  1  1  0  0  0
 13 14  1  0  0  0  0
 13 26  2  0  0  0  0
 14 15  1  0  0  0  0
 14 18  1  0  0  0  0
 15 16  1  0  0  0  0
 15 29  1  0  0  0  0
 15 49  1  1  0  0  0
 16 17  1  0  0  0  0
 16 27  1  0  0  0  0
 16 28  1  0  0  0  0
 17 18  1  0  0  0  0
 18 50  1  0  0  0  0
 18 51  1  0  0  0  0
 19 20  2  0  0  0  0
 19 24  1  0  0  0  0
 20 21  1  0  0  0  0
 20 52  1  0  0  0  0
 21 22  2  0  0  0  0
 21 53  1  0  0  0  0
 22 23  1  0  0  0  0
 22 54  1  0  0  0  0
 23 24  2  0  0  0  0
 23 55  1  0  0  0  0
 24 56  1  0  0  0  0
 25 57  1  0  0  0  0
 27 58  1  0  0  0  0
 27 59  1  0  0  0  0
 27 60  1  0  0  0  0
 28 61  1  0  0  0  0
 28 62  1  0  0  0  0
 28 63  1  0  0  0  0
 29 30  1  0  0  0  0
 29 32  2  0  0  0  0
 30 31  1  0  0  0  0
 30 64  1  0  0  0  0
 31 35  1  0  0  0  0
 31 36  1  0  0  0  0
 31 37  1  0  0  0  0
 33 65  1  0  0  0  0
 35 66  1  0  0  0  0
 35 67  1  0  0  0  0
 35 68  1  0  0  0  0
 36 69  1  0  0  0  0
 36 70  1  0  0  0  0
 36 71  1  0  0  0  0
 37 72  1  0  0  0  0
 37 73  1  0  0  0  0
 37 74  1  0  0  0  0
M  END
$$$$
