KAI
 OpenBabel04041917393D

 31 31  0  0  1  0  0  0  0  0999 V2000
   12.5427    7.2883   24.6295 N   0  3  0  0  0  0  0  0  0  0  0  0
   13.0342    8.6675   24.3749 C   0  0  0  0  0  0  0  0  0  0  0  0
   15.0939   10.3461   22.8080 C   0  0  0  0  0  0  0  0  0  0  0  0
   16.9573    9.3716   24.2740 C   0  0  0  0  0  0  0  0  0  0  0  0
   13.7251    6.3507   24.9196 C   0  0  1  0  0  0  0  0  0  0  0  0
   14.9243    7.1422   24.4078 C   0  0  1  0  0  0  0  0  0  0  0  0
   15.0540    6.9422   22.9059 C   0  0  0  0  0  0  0  0  0  0  0  0
   14.5261    8.5953   24.6296 C   0  0  1  0  0  0  0  0  0  0  0  0
   15.7641    5.7229   22.3389 C   0  0  0  0  0  0  0  0  0  0  0  0
   15.4664    9.6925   24.1193 C   0  0  0  0  0  0  0  0  0  0  0  0
   13.8609    6.0618   26.4696 C   0  0  0  0  0  0  0  0  0  0  0  0
   12.8744    6.4748   27.1496 O   0  0  0  0  0  0  0  0  0  0  0  0
   15.6975    5.5864   21.1082 O   0  0  0  0  0  0  0  0  0  0  0  0
   16.3297    4.9914   23.2124 O   0  0  0  0  0  0  0  0  0  0  0  0
   14.9214    5.5605   26.8048 O   0  0  0  0  0  0  0  0  0  0  0  0
   12.0155    7.2219   25.5257 H   0  0  0  0  0  0  0  0  0  0  0  0
   12.5419    9.3311   25.0924 H   0  0  0  0  0  0  0  0  0  0  0  0
   12.7310    8.9271   23.3588 H   0  0  0  0  0  0  0  0  0  0  0  0
   15.8369   11.1064   22.5483 H   0  0  0  0  0  0  0  0  0  0  0  0
   14.1238   10.8363   22.9376 H   0  0  0  0  0  0  0  0  0  0  0  0
   15.0181    9.6265   21.9949 H   0  0  0  0  0  0  0  0  0  0  0  0
   17.1273    8.8793   25.2413 H   0  0  0  0  0  0  0  0  0  0  0  0
   17.5368   10.3052   24.2687 H   0  0  0  0  0  0  0  0  0  0  0  0
   17.3357    8.7241   23.4780 H   0  0  0  0  0  0  0  0  0  0  0  0
   13.5937    5.4365   24.3126 H   0  0  0  0  0  0  0  0  0  0  0  0
   15.8194    6.9010   24.9982 H   0  0  0  0  0  0  0  0  0  0  0  0
   15.5833    7.8062   22.5198 H   0  0  0  0  0  0  0  0  0  0  0  0
   14.0355    6.9614   22.4992 H   0  0  0  0  0  0  0  0  0  0  0  0
   14.6032    8.7518   25.6975 H   0  0  0  0  0  0  0  0  0  0  0  0
   15.3192   10.4903   24.8417 H   0  0  0  0  0  0  0  0  0  0  0  0
   12.0146    6.8880   23.8676 H   0  0  0  0  0  0  0  0  0  0  0  0
  1  2  1  0  0  0  0
  1  5  1  0  0  0  0
  1 16  1  0  0  0  0
  1 31  1  0  0  0  0
  2  8  1  0  0  0  0
  2 17  1  0  0  0  0
  2 18  1  0  0  0  0
  3 10  1  0  0  0  0
  3 19  1  0  0  0  0
  3 20  1  0  0  0  0
  3 21  1  0  0  0  0
  4 10  1  0  0  0  0
  4 22  1  0  0  0  0
  4 23  1  0  0  0  0
  4 24  1  0  0  0  0
  5  6  1  0  0  0  0
  5 11  1  0  0  0  0
  5 25  1  6  0  0  0
  6  7  1  0  0  0  0
  6  8  1  0  0  0  0
  6 26  1  1  0  0  0
  7  9  1  0  0  0  0
  7 27  1  0  0  0  0
  7 28  1  0  0  0  0
  8 10  1  0  0  0  0
  8 29  1  1  0  0  0
  9 13  2  0  0  0  0
  9 14  1  0  0  0  0
 10 30  1  0  0  0  0
 11 12  2  0  0  0  0
 11 15  1  0  0  0  0
M  CHG  1   1   1
M  END
$$$$
