KIF
 OpenBabel04041916243D

 28 29  0  0  1  0  0  0  0  0999 V2000
   31.4666   66.7278    6.8179 C   0  0  1  0  0  0  0  0  0  0  0  0
   31.7289   67.6068    5.7143 O   0  0  0  0  0  0  0  0  0  0  0  0
   32.6628   66.8046    7.7991 C   0  0  2  0  0  0  0  0  0  0  0  0
   33.8515   66.2924    7.1703 O   0  0  0  0  0  0  0  0  0  0  0  0
   32.3921   66.1930    9.2108 C   0  0  2  0  0  0  0  0  0  0  0  0
   33.3195   65.2136    9.6795 O   0  0  0  0  0  0  0  0  0  0  0  0
   30.9687   65.6163    9.3421 C   0  0  1  0  0  0  0  0  0  0  0  0
   30.6215   65.4654   10.7336 N   0  0  0  0  0  0  0  0  0  0  0  0
   29.6348   66.3193   11.1350 C   0  0  0  0  0  0  0  0  0  0  0  0
   29.1930   66.4641   12.2260 O   0  0  0  0  0  0  0  0  0  0  0  0
   29.2119   67.0826    9.8289 C   0  0  0  0  0  0  0  0  0  0  0  0
   28.3614   67.9124    9.7638 O   0  0  0  0  0  0  0  0  0  0  0  0
   30.0114   66.5701    8.8265 N   0  0  0  0  0  0  0  0  0  0  0  0
   30.1162   67.1356    7.4694 C   0  0  2  0  0  0  0  0  0  0  0  0
   28.9408   66.6596    6.5708 C   0  0  0  0  0  0  0  0  0  0  0  0
   27.6547   66.9085    7.1318 O   0  0  0  0  0  0  0  0  0  0  0  0
   31.3890   65.7040    6.4263 H   0  0  0  0  0  0  0  0  0  0  0  0
   32.5414   67.3253    5.2618 H   0  0  0  0  0  0  0  0  0  0  0  0
   32.8681   67.8682    7.9803 H   0  0  0  0  0  0  0  0  0  0  0  0
   34.0439   66.8512    6.3918 H   0  0  0  0  0  0  0  0  0  0  0  0
   32.5524   67.0259    9.9142 H   0  0  0  0  0  0  0  0  0  0  0  0
   34.1729   65.6779    9.7237 H   0  0  0  0  0  0  0  0  0  0  0  0
   30.8316   64.6291    8.8609 H   0  0  0  0  0  0  0  0  0  0  0  0
   31.0873   64.8786   11.4201 H   0  0  0  0  0  0  0  0  0  0  0  0
   30.0442   68.2360    7.5295 H   0  0  0  0  0  0  0  0  0  0  0  0
   29.0245   65.5806    6.3993 H   0  0  0  0  0  0  0  0  0  0  0  0
   28.9682   67.1643    5.5962 H   0  0  0  0  0  0  0  0  0  0  0  0
   27.6016   66.4741    8.0025 H   0  0  0  0  0  0  0  0  0  0  0  0
  1  2  1  0  0  0  0
  1  3  1  0  0  0  0
  1 14  1  0  0  0  0
  1 17  1  6  0  0  0
  2 18  1  0  0  0  0
  3  4  1  0  0  0  0
  3  5  1  0  0  0  0
  3 19  1  1  0  0  0
  4 20  1  0  0  0  0
  5  6  1  0  0  0  0
  5  7  1  0  0  0  0
  5 21  1  1  0  0  0
  6 22  1  0  0  0  0
  7  8  1  0  0  0  0
  7 13  1  0  0  0  0
  7 23  1  6  0  0  0
  8  9  1  0  0  0  0
  8 24  1  0  0  0  0
  9 10  2  0  0  0  0
  9 11  1  0  0  0  0
 11 12  2  0  0  0  0
 11 13  1  0  0  0  0
 13 14  1  0  0  0  0
 14 15  1  0  0  0  0
 14 25  1  1  0  0  0
 15 16  1  0  0  0  0
 15 26  1  0  0  0  0
 15 27  1  0  0  0  0
 16 28  1  0  0  0  0
M  END
$$$$
