KNI
 OpenBabel04041914593D

 87 90  0  0  1  0  0  0  0  0999 V2000
    6.8411    1.1646    6.1518 C   0  0  0  0  0  0  0  0  0  0  0  0
    6.2799    2.0013    7.1068 C   0  0  0  0  0  0  0  0  0  0  0  0
    6.8614    3.2598    7.3604 C   0  0  0  0  0  0  0  0  0  0  0  0
    8.0032    3.6132    6.6011 C   0  0  0  0  0  0  0  0  0  0  0  0
    8.4720    2.6889    5.6658 C   0  0  0  0  0  0  0  0  0  0  0  0
    6.3748    4.1665    8.3237 C   0  0  0  0  0  0  0  0  0  0  0  0
    7.0022    5.3960    8.5188 C   0  0  0  0  0  0  0  0  0  0  0  0
    8.1282    5.7351    7.7697 C   0  0  0  0  0  0  0  0  0  0  0  0
    8.6247    4.8464    6.8219 C   0  0  0  0  0  0  0  0  0  0  0  0
    5.1439    4.4011   10.3217 C   0  0  0  0  0  0  0  0  0  0  0  0
    4.0436    3.7275   11.1012 C   0  0  0  0  0  0  0  0  0  0  0  0
    1.9256    0.9844   10.8358 C   0  0  0  0  0  0  0  0  0  0  0  0
    3.7887    0.5060   12.4307 C   0  0  0  0  0  0  0  0  0  0  0  0
    5.3679    0.0793   14.2697 C   0  0  2  0  0  0  0  0  0  0  0  0
    4.7287   -0.1299   15.6529 C   0  0  1  0  0  0  0  0  0  0  0  0
    6.7857    0.6553   14.3525 C   0  0  0  0  0  0  0  0  0  0  0  0
    5.3283   -1.3685   16.3296 C   0  0  0  0  0  0  0  0  0  0  0  0
    5.3385   -3.8098   16.5124 C   0  0  1  0  0  0  0  0  0  0  0  0
    4.4265   -4.9963   16.2569 C   0  0  0  0  0  0  0  0  0  0  0  0
    3.5480   -2.7264   15.2188 C   0  0  0  0  0  0  0  0  0  0  0  0
    6.6288   -3.9853   15.7104 C   0  0  0  0  0  0  0  0  0  0  0  0
    9.0190   -4.6488   15.9045 C   0  0  0  0  0  0  0  0  0  0  0  0
    9.5518   -3.2530   15.5442 C   0  0  0  0  0  0  0  0  0  0  0  0
    9.1024   -5.5704   14.6835 C   0  0  0  0  0  0  0  0  0  0  0  0
    9.8984   -5.2008   17.0250 C   0  0  0  0  0  0  0  0  0  0  0  0
    3.0182    1.5916   11.6943 C   0  0  1  0  0  0  0  0  0  0  0  0
   -0.1899    2.0578   12.1646 C   0  0  0  0  0  0  0  0  0  0  0  0
    7.3969    0.9014   12.9881 C   0  0  0  0  0  0  0  0  0  0  0  0
    7.4121    2.1784   12.4352 C   0  0  0  0  0  0  0  0  0  0  0  0
    7.9685    2.3883   11.1720 C   0  0  0  0  0  0  0  0  0  0  0  0
    8.4771    1.3173   10.4384 C   0  0  0  0  0  0  0  0  0  0  0  0
    8.4446    0.0483   10.9752 C   0  0  0  0  0  0  0  0  0  0  0  0
    7.9143   -0.1799   12.2475 C   0  0  0  0  0  0  0  0  0  0  0  0
    7.9153    1.4761    5.4253 N   0  0  0  0  0  0  0  0  0  0  0  0
    3.9479    2.3733   10.9066 N   0  0  0  0  0  0  0  0  0  0  0  0
    4.5133    0.9767   13.4961 N   0  0  0  0  0  0  0  0  0  0  0  0
    4.7012   -2.5728   16.0782 N   0  0  0  0  0  0  0  0  0  0  0  0
    7.6487   -4.5958   16.4099 N   0  0  0  0  0  0  0  0  0  0  0  0
    5.2664    3.7849    9.0427 O   0  0  0  0  0  0  0  0  0  0  0  0
    4.8882    1.0410   16.4496 O   0  0  0  0  0  0  0  0  0  0  0  0
    3.3387    4.3438   11.8967 O   0  0  0  0  0  0  0  0  0  0  0  0
    6.3032   -1.2819   17.0782 O   0  0  0  0  0  0  0  0  0  0  0  0
    6.7421   -3.5946   14.5531 O   0  0  0  0  0  0  0  0  0  0  0  0
    3.7939   -0.6732   12.0911 O   0  0  0  0  0  0  0  0  0  0  0  0
    0.5645    0.4348   11.9242 S   0  0  0  0  0  0  0  0  0  0  0  0
    3.2416   -4.4785   14.9916 S   0  0  0  0  0  0  0  0  0  0  0  0
    6.3916    0.1853    5.9607 H   0  0  0  0  0  0  0  0  0  0  0  0
    5.4044    1.6783    7.6534 H   0  0  0  0  0  0  0  0  0  0  0  0
    9.3406    2.9138    5.0612 H   0  0  0  0  0  0  0  0  0  0  0  0
    6.6428    6.1214    9.2399 H   0  0  0  0  0  0  0  0  0  0  0  0
    8.6100    6.6948    7.9291 H   0  0  0  0  0  0  0  0  0  0  0  0
    9.5009    5.1286    6.2436 H   0  0  0  0  0  0  0  0  0  0  0  0
    4.8705    5.4552   10.2323 H   0  0  0  0  0  0  0  0  0  0  0  0
    6.0610    4.2990   10.9060 H   0  0  0  0  0  0  0  0  0  0  0  0
    2.3019    0.1438   10.2432 H   0  0  0  0  0  0  0  0  0  0  0  0
    1.5320    1.7242   10.1306 H   0  0  0  0  0  0  0  0  0  0  0  0
    5.4222   -0.8817   13.7424 H   0  0  0  0  0  0  0  0  0  0  0  0
    3.6479   -0.2696   15.5506 H   0  0  0  0  0  0  0  0  0  0  0  0
    7.4345   -0.0324   14.9056 H   0  0  0  0  0  0  0  0  0  0  0  0
    6.7784    1.6018   14.9066 H   0  0  0  0  0  0  0  0  0  0  0  0
    5.5922   -3.7337   17.5788 H   0  0  0  0  0  0  0  0  0  0  0  0
    4.9654   -5.8873   15.9216 H   0  0  0  0  0  0  0  0  0  0  0  0
    3.8685   -5.2487   17.1630 H   0  0  0  0  0  0  0  0  0  0  0  0
    3.7055   -2.2224   14.2644 H   0  0  0  0  0  0  0  0  0  0  0  0
    2.6972   -2.2537   15.7211 H   0  0  0  0  0  0  0  0  0  0  0  0
   10.5805   -3.3153   15.1699 H   0  0  0  0  0  0  0  0  0  0  0  0
    9.5496   -2.5956   16.4209 H   0  0  0  0  0  0  0  0  0  0  0  0
    8.9595   -2.7639   14.7667 H   0  0  0  0  0  0  0  0  0  0  0  0
   10.1271   -5.6213   14.3001 H   0  0  0  0  0  0  0  0  0  0  0  0
    8.4637   -5.2206   13.8661 H   0  0  0  0  0  0  0  0  0  0  0  0
    8.7789   -6.5843   14.9408 H   0  0  0  0  0  0  0  0  0  0  0  0
   10.9434   -5.2685   16.7094 H   0  0  0  0  0  0  0  0  0  0  0  0
    9.5556   -6.1938   17.3329 H   0  0  0  0  0  0  0  0  0  0  0  0
    9.8448   -4.5455   17.9036 H   0  0  0  0  0  0  0  0  0  0  0  0
    2.5843    2.2513   12.4502 H   0  0  0  0  0  0  0  0  0  0  0  0
   -1.0277    1.9688   12.8535 H   0  0  0  0  0  0  0  0  0  0  0  0
   -0.5472    2.4061   11.1945 H   0  0  0  0  0  0  0  0  0  0  0  0
    0.5178    2.7882   12.5685 H   0  0  0  0  0  0  0  0  0  0  0  0
    7.0007    3.0208   12.9866 H   0  0  0  0  0  0  0  0  0  0  0  0
    8.0074    3.3835   10.7481 H   0  0  0  0  0  0  0  0  0  0  0  0
    8.8953    1.4858    9.4526 H   0  0  0  0  0  0  0  0  0  0  0  0
    8.8350   -0.7878   10.3834 H   0  0  0  0  0  0  0  0  0  0  0  0
    7.8880   -1.1834   12.6568 H   0  0  0  0  0  0  0  0  0  0  0  0
    4.5346    1.9240   10.2061 H   0  0  0  0  0  0  0  0  0  0  0  0
    4.4656    1.9561   13.7639 H   0  0  0  0  0  0  0  0  0  0  0  0
    7.4606   -4.9918   17.3270 H   0  0  0  0  0  0  0  0  0  0  0  0
    4.5752    0.8014   17.3393 H   0  0  0  0  0  0  0  0  0  0  0  0
  1 34  2  0  0  0  0
  1  2  1  0  0  0  0
  1 47  1  0  0  0  0
  2  3  2  0  0  0  0
  2 48  1  0  0  0  0
  3  6  1  0  0  0  0
  3  4  1  0  0  0  0
  4  9  1  0  0  0  0
  4  5  2  0  0  0  0
  5 34  1  0  0  0  0
  5 49  1  0  0  0  0
  6  7  2  0  0  0  0
  6 39  1  0  0  0  0
  7  8  1  0  0  0  0
  7 50  1  0  0  0  0
  8  9  2  0  0  0  0
  8 51  1  0  0  0  0
  9 52  1  0  0  0  0
 10 39  1  0  0  0  0
 10 11  1  0  0  0  0
 10 53  1  0  0  0  0
 10 54  1  0  0  0  0
 11 41  2  0  0  0  0
 11 35  1  0  0  0  0
 12 26  1  0  0  0  0
 12 45  1  0  0  0  0
 12 55  1  0  0  0  0
 12 56  1  0  0  0  0
 13 26  1  0  0  0  0
 13 36  1  0  0  0  0
 13 44  2  0  0  0  0
 14 36  1  0  0  0  0
 14 16  1  0  0  0  0
 14 15  1  0  0  0  0
 14 57  1  6  0  0  0
 15 40  1  0  0  0  0
 15 17  1  0  0  0  0
 15 58  1  6  0  0  0
 16 28  1  0  0  0  0
 16 59  1  0  0  0  0
 16 60  1  0  0  0  0
 17 37  1  0  0  0  0
 17 42  2  0  0  0  0
 18 37  1  0  0  0  0
 18 19  1  0  0  0  0
 18 21  1  0  0  0  0
 18 61  1  1  0  0  0
 19 46  1  0  0  0  0
 19 62  1  0  0  0  0
 19 63  1  0  0  0  0
 20 37  1  0  0  0  0
 20 46  1  0  0  0  0
 20 64  1  0  0  0  0
 20 65  1  0  0  0  0
 21 38  1  0  0  0  0
 21 43  2  0  0  0  0
 22 38  1  0  0  0  0
 22 25  1  0  0  0  0
 22 24  1  0  0  0  0
 22 23  1  0  0  0  0
 23 66  1  0  0  0  0
 23 67  1  0  0  0  0
 23 68  1  0  0  0  0
 24 69  1  0  0  0  0
 24 70  1  0  0  0  0
 24 71  1  0  0  0  0
 25 72  1  0  0  0  0
 25 73  1  0  0  0  0
 25 74  1  0  0  0  0
 26 35  1  0  0  0  0
 26 75  1  1  0  0  0
 27 45  1  0  0  0  0
 27 76  1  0  0  0  0
 27 77  1  0  0  0  0
 27 78  1  0  0  0  0
 28 33  2  0  0  0  0
 28 29  1  0  0  0  0
 29 30  2  0  0  0  0
 29 79  1  0  0  0  0
 30 31  1  0  0  0  0
 30 80  1  0  0  0  0
 31 32  2  0  0  0  0
 31 81  1  0  0  0  0
 32 33  1  0  0  0  0
 32 82  1  0  0  0  0
 33 83  1  0  0  0  0
 35 84  1  0  0  0  0
 36 85  1  0  0  0  0
 38 86  1  0  0  0  0
 40 87  1  0  0  0  0
M  END
$$$$
