KSA
 OpenBabel04041916413D

 56 63  0  0  1  0  0  0  0  0999 V2000
   11.3552   11.0379  136.5895 O   0  0  0  0  0  0  0  0  0  0  0  0
   12.1350   10.5139  137.3764 C   0  0  0  0  0  0  0  0  0  0  0  0
   11.9293    9.2932  137.9533 O   0  0  0  0  0  0  0  0  0  0  0  0
   10.7025    8.6533  137.5992 C   0  0  0  0  0  0  0  0  0  0  0  0
   13.5087   11.0950  137.7673 C   0  0  2  0  0  0  0  0  0  0  0  0
   13.4568   12.5228  137.6768 O   0  0  0  0  0  0  0  0  0  0  0  0
   14.5700   10.4091  136.8789 C   0  0  1  0  0  0  0  0  0  0  0  0
   14.8069    9.1478  137.5415 O   0  0  0  0  0  0  0  0  0  0  0  0
   14.1475    9.9789  135.4746 C   0  0  0  0  0  0  0  0  0  0  0  0
   15.8339   11.1450  136.8514 N   0  3  0  0  0  0  0  0  0  0  0  0
   16.9366   11.0066  137.6386 C   0  0  0  0  0  0  0  0  0  0  0  0
   17.0691   10.2252  138.7980 C   0  0  0  0  0  0  0  0  0  0  0  0
   16.0789    9.5114  139.3872 N   0  3  0  0  0  0  0  0  0  0  0  0
   14.7188    9.3880  138.9475 C   0  0  1  0  0  0  0  0  0  0  0  0
   13.9052   10.6622  139.1781 C   0  0  0  0  0  0  0  0  0  0  0  0
   16.7463    8.9175  140.4722 C   0  0  0  0  0  0  0  0  0  0  0  0
   16.2467    8.0326  141.4560 C   0  0  0  0  0  0  0  0  0  0  0  0
   17.0928    7.5642  142.4688 C   0  0  0  0  0  0  0  0  0  0  0  0
   18.4213    7.9581  142.5122 C   0  0  0  0  0  0  0  0  0  0  0  0
   18.9427    8.8225  141.5403 C   0  0  0  0  0  0  0  0  0  0  0  0
   18.1365    9.3324  140.4892 C   0  0  0  0  0  0  0  0  0  0  0  0
   18.3453   10.2032  139.3751 C   0  0  0  0  0  0  0  0  0  0  0  0
   19.5314   10.8539  138.9842 C   0  0  0  0  0  0  0  0  0  0  0  0
   20.8889   10.9229  139.4234 C   0  0  0  0  0  0  0  0  0  0  0  0
   21.5196   10.3892  140.3228 O   0  0  0  0  0  0  0  0  0  0  0  0
   19.3783   11.6774  137.8439 C   0  0  0  0  0  0  0  0  0  0  0  0
   20.6220   12.3453  137.4797 C   0  0  0  0  0  0  0  0  0  0  0  0
   21.4774   11.8175  138.5272 N   0  0  0  0  0  0  0  0  0  0  0  0
   18.1073   11.6835  137.2751 C   0  0  0  0  0  0  0  0  0  0  0  0
   17.6973   12.3971  136.1180 C   0  0  0  0  0  0  0  0  0  0  0  0
   16.2947   12.0985  135.8954 C   0  0  0  0  0  0  0  0  0  0  0  0
   15.6247   12.7302  134.8166 C   0  0  0  0  0  0  0  0  0  0  0  0
   18.3352   13.2788  135.2154 C   0  0  0  0  0  0  0  0  0  0  0  0
   17.6545   13.8496  134.1334 C   0  0  0  0  0  0  0  0  0  0  0  0
   16.3144   13.5747  133.9402 C   0  0  0  0  0  0  0  0  0  0  0  0
   10.6721    7.6907  138.1166 H   0  0  0  0  0  0  0  0  0  0  0  0
   10.6591    8.4688  136.5219 H   0  0  0  0  0  0  0  0  0  0  0  0
    9.8531    9.2551  137.9319 H   0  0  0  0  0  0  0  0  0  0  0  0
   14.3482   12.9050  137.7747 H   0  0  0  0  0  0  0  0  0  0  0  0
   14.9950    9.5179  134.9515 H   0  0  0  0  0  0  0  0  0  0  0  0
   13.7586   10.7938  134.8684 H   0  0  0  0  0  0  0  0  0  0  0  0
   13.3724    9.2074  135.5140 H   0  0  0  0  0  0  0  0  0  0  0  0
   14.2687    8.5071  139.4108 H   0  0  0  0  0  0  0  0  0  0  0  0
   13.0332   10.4461  139.8068 H   0  0  0  0  0  0  0  0  0  0  0  0
   14.4679   11.4325  139.7208 H   0  0  0  0  0  0  0  0  0  0  0  0
   15.2126    7.6982  141.4458 H   0  0  0  0  0  0  0  0  0  0  0  0
   16.7089    6.8847  143.2276 H   0  0  0  0  0  0  0  0  0  0  0  0
   19.0701    7.5903  143.3076 H   0  0  0  0  0  0  0  0  0  0  0  0
   19.9929    9.0952  141.6156 H   0  0  0  0  0  0  0  0  0  0  0  0
   20.5526   13.4304  137.5729 H   0  0  0  0  0  0  0  0  0  0  0  0
   20.9988   12.0315  136.5040 H   0  0  0  0  0  0  0  0  0  0  0  0
   22.4588   12.0334  138.6202 H   0  0  0  0  0  0  0  0  0  0  0  0
   14.5680   12.5827  134.6247 H   0  0  0  0  0  0  0  0  0  0  0  0
   19.3821   13.5432  135.3437 H   0  0  0  0  0  0  0  0  0  0  0  0
   18.1763   14.5115  133.4454 H   0  0  0  0  0  0  0  0  0  0  0  0
   15.7892   14.0224  133.0953 H   0  0  0  0  0  0  0  0  0  0  0  0
  1  2  2  0  0  0  0
  2  3  1  0  0  0  0
  3  4  1  0  0  0  0
  4 36  1  0  0  0  0
  4 37  1  0  0  0  0
  4 38  1  0  0  0  0
  5  2  1  6  0  0  0
  5  6  1  0  0  0  0
  5  7  1  0  0  0  0
  5 15  1  0  0  0  0
  6 39  1  0  0  0  0
  7  8  1  0  0  0  0
  7  9  1  6  0  0  0
  7 10  1  0  0  0  0
  8 14  1  0  0  0  0
  9 40  1  0  0  0  0
  9 41  1  0  0  0  0
  9 42  1  0  0  0  0
 10 11  2  0  0  0  0
 10 31  1  0  0  0  0
 11 12  1  0  0  0  0
 11 29  1  0  0  0  0
 12 13  2  0  0  0  0
 12 22  1  0  0  0  0
 13 14  1  0  0  0  0
 13 16  1  0  0  0  0
 14 15  1  0  0  0  0
 14 43  1  1  0  0  0
 15 44  1  0  0  0  0
 15 45  1  0  0  0  0
 16 17  2  0  0  0  0
 16 21  1  0  0  0  0
 17 18  1  0  0  0  0
 17 46  1  0  0  0  0
 18 19  2  0  0  0  0
 18 47  1  0  0  0  0
 19 20  1  0  0  0  0
 19 48  1  0  0  0  0
 20 21  2  0  0  0  0
 20 49  1  0  0  0  0
 21 22  1  0  0  0  0
 22 23  2  0  0  0  0
 23 24  1  0  0  0  0
 23 26  1  0  0  0  0
 24 25  2  0  0  0  0
 24 28  1  0  0  0  0
 26 27  1  0  0  0  0
 26 29  2  0  0  0  0
 27 28  1  0  0  0  0
 27 50  1  0  0  0  0
 27 51  1  0  0  0  0
 28 52  1  0  0  0  0
 29 30  1  0  0  0  0
 30 31  2  0  0  0  0
 30 33  1  0  0  0  0
 31 32  1  0  0  0  0
 32 35  2  0  0  0  0
 32 53  1  0  0  0  0
 33 34  2  0  0  0  0
 33 54  1  0  0  0  0
 34 35  1  0  0  0  0
 34 55  1  0  0  0  0
 35 56  1  0  0  0  0
M  CHG  2  10   1  13   1
M  END
$$$$
