L08
 OpenBabel04041916433D

 60 63  0  0  0  0  0  0  0  0999 V2000
    1.1975   -2.6302   -7.1019 O   0  0  0  0  0  0  0  0  0  0  0  0
    2.1717   -3.3479   -6.6788 N   0  0  0  0  0  0  0  0  0  0  0  0
    2.0508   -4.8635   -6.9172 C   0  0  0  0  0  0  0  0  0  0  0  0
    3.1964   -5.6924   -6.8572 C   0  0  0  0  0  0  0  0  0  0  0  0
    3.0168   -7.0931   -7.0995 C   0  0  0  0  0  0  0  0  0  0  0  0
    1.7309   -7.6459   -7.3881 C   0  0  0  0  0  0  0  0  0  0  0  0
    0.5566   -6.8436   -7.4634 C   0  0  0  0  0  0  0  0  0  0  0  0
    0.7434   -5.4323   -7.2280 C   0  0  0  0  0  0  0  0  0  0  0  0
   -0.8144   -7.5004   -7.7573 C   0  0  0  0  0  0  0  0  0  0  0  0
   -1.8712   -6.8425   -8.4465 C   0  0  0  0  0  0  0  0  0  0  0  0
   -3.0778   -7.5636   -8.6521 C   0  0  0  0  0  0  0  0  0  0  0  0
   -3.2895   -8.8585   -8.2204 N   0  0  0  0  0  0  0  0  0  0  0  0
   -2.2835   -9.5205   -7.5719 C   0  0  0  0  0  0  0  0  0  0  0  0
   -2.4784  -10.8095   -7.1076 N   0  0  0  0  0  0  0  0  0  0  0  0
   -3.2785  -10.9755   -5.8859 C   0  0  0  0  0  0  0  0  0  0  0  0
   -4.3981  -11.9893   -6.1145 C   0  0  0  0  0  0  0  0  0  0  0  0
   -3.9096  -13.2490   -6.7178 N   0  0  0  0  0  0  0  0  0  0  0  0
   -3.0571  -13.0821   -7.9306 C   0  0  0  0  0  0  0  0  0  0  0  0
   -1.9351  -12.0137   -7.7750 C   0  0  0  0  0  0  0  0  0  0  0  0
   -4.9173  -14.2288   -6.8606 C   0  0  0  0  0  0  0  0  0  0  0  0
   -4.8735  -15.2916   -6.3003 O   0  0  0  0  0  0  0  0  0  0  0  0
   -6.0671  -13.8568   -7.7968 C   0  0  0  0  0  0  0  0  0  0  0  0
   -1.0590   -8.8617   -7.3297 C   0  0  0  0  0  0  0  0  0  0  0  0
    4.8509   -5.0062   -6.5165 S   0  0  0  0  0  0  0  0  0  0  0  0
    5.7993   -6.3547   -5.8018 C   0  0  0  0  0  0  0  0  0  0  0  0
    6.4519   -7.3065   -6.6855 C   0  0  0  0  0  0  0  0  0  0  0  0
    7.1741   -8.3524   -6.0668 C   0  0  0  0  0  0  0  0  0  0  0  0
    7.2370   -8.4510   -4.6147 C   0  0  0  0  0  0  0  0  0  0  0  0
    6.5805   -7.5062   -3.7708 C   0  0  0  0  0  0  0  0  0  0  0  0
    5.8589   -6.4461   -4.3650 C   0  0  0  0  0  0  0  0  0  0  0  0
    6.3175   -7.1068   -8.0747 O   0  0  0  0  0  0  0  0  0  0  0  0
    6.3729   -8.1896   -9.0558 C   0  0  0  0  0  0  0  0  0  0  0  0
    5.8180   -7.7343  -10.4352 C   0  0  0  0  0  0  0  0  0  0  0  0
    3.1261   -2.8725   -6.0958 O   0  0  0  0  0  0  0  0  0  0  0  0
    3.8641   -7.7862   -7.0685 H   0  0  0  0  0  0  0  0  0  0  0  0
    1.6671   -8.7379   -7.5616 H   0  0  0  0  0  0  0  0  0  0  0  0
   -0.1452   -4.7861   -7.2669 H   0  0  0  0  0  0  0  0  0  0  0  0
   -1.7757   -5.8161   -8.8194 H   0  0  0  0  0  0  0  0  0  0  0  0
   -3.9114   -7.0813   -9.1840 H   0  0  0  0  0  0  0  0  0  0  0  0
   -3.7191  -10.0109   -5.6001 H   0  0  0  0  0  0  0  0  0  0  0  0
   -2.6579  -11.3246   -5.0454 H   0  0  0  0  0  0  0  0  0  0  0  0
   -5.1340  -11.5414   -6.7950 H   0  0  0  0  0  0  0  0  0  0  0  0
   -4.9162  -12.1867   -5.1564 H   0  0  0  0  0  0  0  0  0  0  0  0
   -3.7250  -12.7851   -8.7533 H   0  0  0  0  0  0  0  0  0  0  0  0
   -2.6336  -14.0653   -8.2204 H   0  0  0  0  0  0  0  0  0  0  0  0
   -1.0924  -12.4427   -7.2025 H   0  0  0  0  0  0  0  0  0  0  0  0
   -1.5285  -11.7361   -8.7628 H   0  0  0  0  0  0  0  0  0  0  0  0
   -6.7660  -14.6991   -7.8333 H   0  0  0  0  0  0  0  0  0  0  0  0
   -5.7114  -13.6678   -8.8114 H   0  0  0  0  0  0  0  0  0  0  0  0
   -6.6093  -12.9834   -7.4304 H   0  0  0  0  0  0  0  0  0  0  0  0
   -0.2663   -9.3803   -6.7865 H   0  0  0  0  0  0  0  0  0  0  0  0
    7.7028   -9.1024   -6.6681 H   0  0  0  0  0  0  0  0  0  0  0  0
    7.8044   -9.2763   -4.1377 H   0  0  0  0  0  0  0  0  0  0  0  0
    6.6253   -7.5853   -2.6695 H   0  0  0  0  0  0  0  0  0  0  0  0
    5.3448   -5.7024   -3.7166 H   0  0  0  0  0  0  0  0  0  0  0  0
    5.7658   -9.0374   -8.7208 H   0  0  0  0  0  0  0  0  0  0  0  0
    7.4053   -8.5276   -9.2139 H   0  0  0  0  0  0  0  0  0  0  0  0
    5.8411   -8.5446  -11.1840 H   0  0  0  0  0  0  0  0  0  0  0  0
    6.4031   -6.8950  -10.8360 H   0  0  0  0  0  0  0  0  0  0  0  0
    4.7770   -7.3960  -10.3429 H   0  0  0  0  0  0  0  0  0  0  0  0
  1  2  2  0  0  0  0
  2  3  1  0  0  0  0
  2 34  2  0  0  0  0
  3  4  2  0  0  0  0
  3  8  1  0  0  0  0
  4  5  1  0  0  0  0
  4 24  1  0  0  0  0
  5  6  2  0  0  0  0
  5 35  1  0  0  0  0
  6  7  1  0  0  0  0
  6 36  1  0  0  0  0
  7  8  2  0  0  0  0
  7  9  1  0  0  0  0
  8 37  1  0  0  0  0
  9 10  2  0  0  0  0
  9 23  1  0  0  0  0
 10 11  1  0  0  0  0
 10 38  1  0  0  0  0
 11 12  2  0  0  0  0
 11 39  1  0  0  0  0
 12 13  1  0  0  0  0
 13 14  1  0  0  0  0
 13 23  2  0  0  0  0
 14 15  1  0  0  0  0
 14 19  1  0  0  0  0
 15 16  1  0  0  0  0
 15 40  1  0  0  0  0
 15 41  1  0  0  0  0
 16 17  1  0  0  0  0
 16 42  1  0  0  0  0
 16 43  1  0  0  0  0
 17 18  1  0  0  0  0
 17 20  1  0  0  0  0
 18 19  1  0  0  0  0
 18 44  1  0  0  0  0
 18 45  1  0  0  0  0
 19 46  1  0  0  0  0
 19 47  1  0  0  0  0
 20 21  2  0  0  0  0
 20 22  1  0  0  0  0
 22 48  1  0  0  0  0
 22 49  1  0  0  0  0
 22 50  1  0  0  0  0
 23 51  1  0  0  0  0
 24 25  1  0  0  0  0
 25 26  2  0  0  0  0
 25 30  1  0  0  0  0
 26 27  1  0  0  0  0
 26 31  1  0  0  0  0
 27 28  2  0  0  0  0
 27 52  1  0  0  0  0
 28 29  1  0  0  0  0
 28 53  1  0  0  0  0
 29 30  2  0  0  0  0
 29 54  1  0  0  0  0
 30 55  1  0  0  0  0
 31 32  1  0  0  0  0
 32 33  1  0  0  0  0
 32 56  1  0  0  0  0
 32 57  1  0  0  0  0
 33 58  1  0  0  0  0
 33 59  1  0  0  0  0
 33 60  1  0  0  0  0
M  END
$$$$
