L17
 OpenBabel04041917543D

 53 55  0  0  1  0  0  0  0  0999 V2000
   20.0603  -14.4902   25.9928 C   0  0  0  0  0  0  0  0  0  0  0  0
   20.0162  -15.9231   25.6775 C   0  0  2  0  0  0  0  0  0  0  0  0
   21.2283  -16.5060   25.1725 N   0  3  2  0  0  0  0  0  0  0  0  0
   22.3591  -15.7616   24.7931 C   0  0  0  0  0  0  0  0  0  0  0  0
   22.3782  -14.3485   25.0898 C   0  0  0  0  0  0  0  0  0  0  0  0
   21.2406  -13.7015   25.7074 C   0  0  0  0  0  0  0  0  0  0  0  0
   18.7322  -16.7052   25.8295 C   0  0  0  0  0  0  0  0  0  0  0  0
   18.0423  -17.0274   24.4940 C   0  0  0  0  0  0  0  0  0  0  0  0
   17.4882  -15.9640   23.7108 N   0  0  0  0  0  0  0  0  0  0  0  0
   18.2444  -15.2680   22.7578 C   0  0  2  0  0  0  0  0  0  0  0  0
   17.6509  -14.0953   22.2371 N   0  3  1  0  0  0  0  0  0  0  0  0
   18.2089  -13.3698   21.1395 C   0  0  2  0  0  0  0  0  0  0  0  0
   19.5240  -13.7860   20.6453 C   0  0  2  0  0  0  0  0  0  0  0  0
   20.1835  -14.9566   21.1802 C   0  0  0  0  0  0  0  0  0  0  0  0
   19.5150  -15.7039   22.2187 C   0  0  0  0  0  0  0  0  0  0  0  0
   16.4180  -13.7169   22.7354 O   0  0  0  0  0  0  0  0  0  0  0  0
   20.3624  -12.9081   19.4187 Cl  0  0  0  0  0  0  0  0  0  0  0  0
   17.5100  -12.1819   20.5781 C   0  0  0  0  0  0  0  0  0  0  0  0
   16.0751  -12.5342   20.1957 C   0  0  0  0  0  0  0  0  0  0  0  0
   15.1523  -11.5681   20.5780 N   0  0  0  0  0  0  0  0  0  0  0  0
   15.7587  -13.5064   19.5087 O   0  0  0  0  0  0  0  0  0  0  0  0
   13.7418  -11.8511   20.4613 C   0  0  1  0  0  0  0  0  0  0  0  0
   12.9273  -11.5746   21.7222 C   0  0  0  0  0  0  0  0  0  0  0  0
   13.0877  -10.4289   22.4937 C   0  0  0  0  0  0  0  0  0  0  0  0
   12.2183  -10.2230   23.5741 C   0  0  0  0  0  0  0  0  0  0  0  0
   11.2213  -11.1092   23.9278 C   0  0  0  0  0  0  0  0  0  0  0  0
   11.8903  -12.4880   22.0552 C   0  0  0  0  0  0  0  0  0  0  0  0
   11.0317  -12.2718   23.1437 C   0  0  0  0  0  0  0  0  0  0  0  0
   18.9375  -17.9046   26.4798 F   0  0  0  0  0  0  0  0  0  0  0  0
   17.8267  -16.0674   26.6513 F   0  0  0  0  0  0  0  0  0  0  0  0
   12.4139   -8.7601   24.5071 Cl  0  0  0  0  0  0  0  0  0  0  0  0
   21.2394  -17.8095   24.7660 O   0  0  0  0  0  0  0  0  0  0  0  0
   13.1723  -11.0299   19.3115 C   0  0  0  0  0  0  0  0  0  0  0  0
   19.1657  -13.9957   26.3697 H   0  0  0  0  0  0  0  0  0  0  0  0
   23.2043  -16.2470   24.3246 H   0  0  0  0  0  0  0  0  0  0  0  0
   23.2594  -13.7816   24.8356 H   0  0  0  0  0  0  0  0  0  0  0  0
   21.2579  -12.6415   25.9051 H   0  0  0  0  0  0  0  0  0  0  0  0
   17.1962  -17.6823   24.7214 H   0  0  0  0  0  0  0  0  0  0  0  0
   18.6912  -17.6498   23.8736 H   0  0  0  0  0  0  0  0  0  0  0  0
   16.7130  -15.3833   24.0262 H   0  0  0  0  0  0  0  0  0  0  0  0
   21.1683  -15.2610   20.8592 H   0  0  0  0  0  0  0  0  0  0  0  0
   20.0334  -16.5512   22.6442 H   0  0  0  0  0  0  0  0  0  0  0  0
   17.9768  -11.8016   19.6670 H   0  0  0  0  0  0  0  0  0  0  0  0
   17.5436  -11.3764   21.3203 H   0  0  0  0  0  0  0  0  0  0  0  0
   15.4874  -10.7656   21.0859 H   0  0  0  0  0  0  0  0  0  0  0  0
   13.6205  -12.9120   20.2143 H   0  0  0  0  0  0  0  0  0  0  0  0
   13.8601   -9.7121   22.2507 H   0  0  0  0  0  0  0  0  0  0  0  0
   10.5867  -10.9317   24.7706 H   0  0  0  0  0  0  0  0  0  0  0  0
   11.7754  -13.4028   21.4786 H   0  0  0  0  0  0  0  0  0  0  0  0
   10.2796  -12.9986   23.4102 H   0  0  0  0  0  0  0  0  0  0  0  0
   12.1055  -11.2361   19.1840 H   0  0  0  0  0  0  0  0  0  0  0  0
   13.6843  -11.2520   18.3663 H   0  0  0  0  0  0  0  0  0  0  0  0
   13.2903   -9.9577   19.5084 H   0  0  0  0  0  0  0  0  0  0  0  0
  1  2  1  0  0  0  0
  1  6  1  0  0  0  0
  1 34  1  0  0  0  0
  2  3  1  0  0  0  0
  2  7  1  6  0  0  0
  3  4  1  0  0  0  0
  3 32  1  6  0  0  0
  4  5  1  0  0  0  0
  4 35  1  0  0  0  0
  5  6  1  0  0  0  0
  5 36  1  0  0  0  0
  6 37  1  0  0  0  0
  7  8  1  0  0  0  0
  7 29  1  0  0  0  0
  7 30  1  0  0  0  0
  8  9  1  0  0  0  0
  8 38  1  0  0  0  0
  8 39  1  0  0  0  0
  9 40  1  0  0  0  0
 10  9  1  6  0  0  0
 10 11  1  0  0  0  0
 10 15  1  0  0  0  0
 11 12  1  0  0  0  0
 11 16  1  6  0  0  0
 12 13  1  0  0  0  0
 12 18  1  1  0  0  0
 13 14  1  0  0  0  0
 13 17  1  1  0  0  0
 14 15  1  0  0  0  0
 14 41  1  0  0  0  0
 15 42  1  0  0  0  0
 18 19  1  0  0  0  0
 18 43  1  0  0  0  0
 18 44  1  0  0  0  0
 19 20  1  0  0  0  0
 19 21  2  0  0  0  0
 20 22  1  0  0  0  0
 20 45  1  0  0  0  0
 22 23  1  0  0  0  0
 22 33  1  0  0  0  0
 22 46  1  6  0  0  0
 23 24  2  0  0  0  0
 23 27  1  0  0  0  0
 24 25  1  0  0  0  0
 24 47  1  0  0  0  0
 25 26  2  0  0  0  0
 25 31  1  0  0  0  0
 26 28  1  0  0  0  0
 26 48  1  0  0  0  0
 27 28  2  0  0  0  0
 27 49  1  0  0  0  0
 28 50  1  0  0  0  0
 33 51  1  0  0  0  0
 33 52  1  0  0  0  0
 33 53  1  0  0  0  0
M  CHG  2   3   1  11   1
M  END
$$$$
