L86
 OpenBabel04041915563D

 71 74  0  0  1  0  0  0  0  0999 V2000
   19.7897  -14.7259   25.7897 C   0  0  0  0  0  0  0  0  0  0  0  0
   19.8745  -16.0769   25.4284 C   0  0  0  0  0  0  0  0  0  0  0  0
   21.0831  -16.5673   24.9100 C   0  0  0  0  0  0  0  0  0  0  0  0
   22.1521  -15.7045   24.6710 C   0  0  0  0  0  0  0  0  0  0  0  0
   22.0375  -14.3521   24.9792 C   0  0  0  0  0  0  0  0  0  0  0  0
   20.8663  -13.8675   25.5581 C   0  0  0  0  0  0  0  0  0  0  0  0
   18.6643  -16.9770   25.5091 C   0  0  0  0  0  0  0  0  0  0  0  0
   18.1156  -17.3386   24.1053 C   0  0  2  0  0  0  0  0  0  0  0  0
   17.5459  -16.1696   23.4147 N   0  0  0  0  0  0  0  0  0  0  0  0
   18.2970  -15.4020   22.5291 C   0  0  0  0  0  0  0  0  0  0  0  0
   17.7034  -14.0497   22.1051 C   0  0  0  0  0  0  0  0  0  0  0  0
   18.3887  -13.3692   21.0938 N   0  3  0  0  0  0  0  0  0  0  0  0
   19.6064  -13.8685   20.6703 C   0  0  0  0  0  0  0  0  0  0  0  0
   20.0618  -15.0396   21.1385 C   0  0  0  0  0  0  0  0  0  0  0  0
   19.3952  -15.8645   22.0094 N   0  0  0  0  0  0  0  0  0  0  0  0
   16.6129  -13.7420   22.5940 O   0  0  0  0  0  0  0  0  0  0  0  0
   20.5355  -12.9871   19.5292 Cl  0  0  0  0  0  0  0  0  0  0  0  0
   17.8180  -12.1100   20.6207 C   0  0  0  0  0  0  0  0  0  0  0  0
   16.4022  -12.3672   20.0838 C   0  0  0  0  0  0  0  0  0  0  0  0
   15.5024  -11.3670   20.3884 N   0  0  0  0  0  0  0  0  0  0  0  0
   16.0916  -13.3977   19.4843 O   0  0  0  0  0  0  0  0  0  0  0  0
   14.0949  -11.4588   20.0609 C   0  0  0  0  0  0  0  0  0  0  0  0
   13.2130  -11.5025   21.2905 C   0  0  0  0  0  0  0  0  0  0  0  0
   12.4025  -12.6147   21.6261 C   0  0  0  0  0  0  0  0  0  0  0  0
   11.5774  -12.5607   22.7657 C   0  0  0  0  0  0  0  0  0  0  0  0
   11.5336  -11.4197   23.5639 C   0  0  0  0  0  0  0  0  0  0  0  0
   13.1575  -10.3634   22.1253 C   0  0  0  0  0  0  0  0  0  0  0  0
   12.4001  -13.8851   20.8101 C   0  0  0  0  0  0  0  0  0  0  0  0
   12.3231  -10.3235   23.2417 C   0  0  0  0  0  0  0  0  0  0  0  0
   13.6076  -14.7447   21.1703 C   0  0  0  0  0  0  0  0  0  0  0  0
   17.0190  -18.4211   24.2106 C   0  0  0  0  0  0  0  0  0  0  0  0
   16.6381  -19.0605   22.8809 N   0  3  0  0  0  0  0  0  0  0  0  0
   13.6762  -15.9476   20.2721 N   0  3  0  0  0  0  0  0  0  0  0  0
   14.9728  -16.6964   20.3087 C   0  0  0  0  0  0  0  0  0  0  0  0
   15.1376  -17.4642   21.6270 C   0  0  0  0  0  0  0  0  0  0  0  0
   16.4396  -18.2678   21.6258 C   0  0  0  0  0  0  0  0  0  0  0  0
   18.8873  -14.3215   26.2418 H   0  0  0  0  0  0  0  0  0  0  0  0
   21.1997  -17.6180   24.6567 H   0  0  0  0  0  0  0  0  0  0  0  0
   23.0727  -16.0847   24.2332 H   0  0  0  0  0  0  0  0  0  0  0  0
   22.8682  -13.6785   24.7804 H   0  0  0  0  0  0  0  0  0  0  0  0
   20.7939  -12.8149   25.8241 H   0  0  0  0  0  0  0  0  0  0  0  0
   17.8828  -16.5120   26.1227 H   0  0  0  0  0  0  0  0  0  0  0  0
   18.9608  -17.8918   26.0383 H   0  0  0  0  0  0  0  0  0  0  0  0
   18.9276  -17.7713   23.5069 H   0  0  0  0  0  0  0  0  0  0  0  0
   16.8373  -15.6288   23.9173 H   0  0  0  0  0  0  0  0  0  0  0  0
   21.0352  -15.4088   20.8151 H   0  0  0  0  0  0  0  0  0  0  0  0
   18.3808  -11.6647   19.7990 H   0  0  0  0  0  0  0  0  0  0  0  0
   17.7960  -11.4061   21.4590 H   0  0  0  0  0  0  0  0  0  0  0  0
   15.8258  -10.5120   20.8204 H   0  0  0  0  0  0  0  0  0  0  0  0
   13.9443  -12.3367   19.4323 H   0  0  0  0  0  0  0  0  0  0  0  0
   13.8319  -10.5913   19.4462 H   0  0  0  0  0  0  0  0  0  0  0  0
   10.9374  -13.3985   23.0381 H   0  0  0  0  0  0  0  0  0  0  0  0
   10.8730  -11.3781   24.4270 H   0  0  0  0  0  0  0  0  0  0  0  0
   13.7502   -9.4803   21.8941 H   0  0  0  0  0  0  0  0  0  0  0  0
   12.3769  -13.6436   19.7417 H   0  0  0  0  0  0  0  0  0  0  0  0
   11.4758  -14.4495   20.9871 H   0  0  0  0  0  0  0  0  0  0  0  0
   12.2751   -9.4260   23.8568 H   0  0  0  0  0  0  0  0  0  0  0  0
   13.5467  -15.1079   22.2009 H   0  0  0  0  0  0  0  0  0  0  0  0
   14.5407  -14.2024   21.0491 H   0  0  0  0  0  0  0  0  0  0  0  0
   16.0927  -18.0221   24.6422 H   0  0  0  0  0  0  0  0  0  0  0  0
   17.3641  -19.2557   24.8307 H   0  0  0  0  0  0  0  0  0  0  0  0
   17.3932  -19.7303   22.6752 H   0  0  0  0  0  0  0  0  0  0  0  0
   12.8655  -16.5591   20.4419 H   0  0  0  0  0  0  0  0  0  0  0  0
   15.7803  -15.9765   20.1459 H   0  0  0  0  0  0  0  0  0  0  0  0
   14.9437  -17.3855   19.4582 H   0  0  0  0  0  0  0  0  0  0  0  0
   14.2858  -18.1430   21.7598 H   0  0  0  0  0  0  0  0  0  0  0  0
   15.1221  -16.7678   22.4706 H   0  0  0  0  0  0  0  0  0  0  0  0
   16.3899  -19.0170   20.8259 H   0  0  0  0  0  0  0  0  0  0  0  0
   17.3328  -17.6730   21.4348 H   0  0  0  0  0  0  0  0  0  0  0  0
   15.8159  -19.6549   23.0540 H   0  0  0  0  0  0  0  0  0  0  0  0
   13.5581  -15.6022   19.3049 H   0  0  0  0  0  0  0  0  0  0  0  0
  1  2  2  0  0  0  0
  1  6  1  0  0  0  0
  1 37  1  0  0  0  0
  2  3  1  0  0  0  0
  2  7  1  0  0  0  0
  3  4  2  0  0  0  0
  3 38  1  0  0  0  0
  4  5  1  0  0  0  0
  4 39  1  0  0  0  0
  5  6  2  0  0  0  0
  5 40  1  0  0  0  0
  6 41  1  0  0  0  0
  7  8  1  0  0  0  0
  7 42  1  0  0  0  0
  7 43  1  0  0  0  0
  8  9  1  0  0  0  0
  8 31  1  0  0  0  0
  8 44  1  6  0  0  0
  9 10  1  0  0  0  0
  9 45  1  0  0  0  0
 10 11  1  0  0  0  0
 10 15  2  0  0  0  0
 11 12  1  0  0  0  0
 11 16  2  0  0  0  0
 12 13  1  0  0  0  0
 12 18  1  0  0  0  0
 13 14  2  0  0  0  0
 13 17  1  0  0  0  0
 14 15  1  0  0  0  0
 14 46  1  0  0  0  0
 18 19  1  0  0  0  0
 18 47  1  0  0  0  0
 18 48  1  0  0  0  0
 19 20  1  0  0  0  0
 19 21  2  0  0  0  0
 20 22  1  0  0  0  0
 20 49  1  0  0  0  0
 22 23  1  0  0  0  0
 22 50  1  0  0  0  0
 22 51  1  0  0  0  0
 23 24  2  0  0  0  0
 23 27  1  0  0  0  0
 24 25  1  0  0  0  0
 24 28  1  0  0  0  0
 25 26  2  0  0  0  0
 25 52  1  0  0  0  0
 26 29  1  0  0  0  0
 26 53  1  0  0  0  0
 27 29  2  0  0  0  0
 27 54  1  0  0  0  0
 28 30  1  0  0  0  0
 28 55  1  0  0  0  0
 28 56  1  0  0  0  0
 29 57  1  0  0  0  0
 30 33  1  0  0  0  0
 30 58  1  0  0  0  0
 30 59  1  0  0  0  0
 31 32  1  0  0  0  0
 31 60  1  0  0  0  0
 31 61  1  0  0  0  0
 32 36  1  0  0  0  0
 32 62  1  0  0  0  0
 32 70  1  0  0  0  0
 33 34  1  0  0  0  0
 33 63  1  0  0  0  0
 33 71  1  0  0  0  0
 34 35  1  0  0  0  0
 34 64  1  0  0  0  0
 34 65  1  0  0  0  0
 35 36  1  0  0  0  0
 35 66  1  0  0  0  0
 35 67  1  0  0  0  0
 36 68  1  0  0  0  0
 36 69  1  0  0  0  0
M  CHG  3  12   1  32   1  33   1
M  END
$$$$
