LHY
 OpenBabel04041914553D

 27 27  0  0  1  0  0  0  0  0999 V2000
    6.0206    9.5618   -0.8787 N   0  0  0  0  0  0  0  0  0  0  0  0
    5.6218    9.2138   -2.2702 C   0  0  2  0  0  0  0  0  0  0  0  0
    6.7942    8.7863   -3.2114 C   0  0  0  0  0  0  0  0  0  0  0  0
    7.8605    9.4699   -3.1074 O   0  0  0  0  0  0  0  0  0  0  0  0
    4.8734   10.3797   -2.9546 C   0  0  0  0  0  0  0  0  0  0  0  0
    3.9836    9.9557   -4.1071 C   0  0  0  0  0  0  0  0  0  0  0  0
    2.7193    9.3912   -3.8735 C   0  0  0  0  0  0  0  0  0  0  0  0
    4.4289   10.0774   -5.4339 C   0  0  0  0  0  0  0  0  0  0  0  0
    1.9248    8.9590   -4.9416 C   0  0  0  0  0  0  0  0  0  0  0  0
    3.6369    9.6433   -6.4986 C   0  0  0  0  0  0  0  0  0  0  0  0
    2.3827    9.0822   -6.2503 C   0  0  0  0  0  0  0  0  0  0  0  0
    6.5359    7.8256   -4.0006 O   0  0  0  0  0  0  0  0  0  0  0  0
    6.8268    8.7302   -0.1535 C   0  0  0  0  0  0  0  0  0  0  0  0
    7.1785    7.5910   -0.4904 O   0  0  0  0  0  0  0  0  0  0  0  0
    7.1539    9.1875    1.0861 N   0  0  0  0  0  0  0  0  0  0  0  0
    6.8002   10.4805    1.5218 O   0  0  0  0  0  0  0  0  0  0  0  0
    5.9175   10.5152   -0.5618 H   0  0  0  0  0  0  0  0  0  0  0  0
    4.9419    8.3629   -2.1581 H   0  0  0  0  0  0  0  0  0  0  0  0
    5.5824   11.1430   -3.3026 H   0  0  0  0  0  0  0  0  0  0  0  0
    4.2372   10.8951   -2.2197 H   0  0  0  0  0  0  0  0  0  0  0  0
    2.3589    9.2694   -2.8556 H   0  0  0  0  0  0  0  0  0  0  0  0
    5.4195   10.4831   -5.6358 H   0  0  0  0  0  0  0  0  0  0  0  0
    0.9555    8.5095   -4.7460 H   0  0  0  0  0  0  0  0  0  0  0  0
    4.0084    9.7225   -7.5164 H   0  0  0  0  0  0  0  0  0  0  0  0
    1.7753    8.7274   -7.0792 H   0  0  0  0  0  0  0  0  0  0  0  0
    7.7737    8.6265    1.6597 H   0  0  0  0  0  0  0  0  0  0  0  0
    5.8288   10.4201    1.4852 H   0  0  0  0  0  0  0  0  0  0  0  0
  1  2  1  0  0  0  0
  1 13  1  0  0  0  0
  1 17  1  0  0  0  0
  2  5  1  0  0  0  0
  2  3  1  0  0  0  0
  2 18  1  1  0  0  0
  3  4  2  0  0  0  0
  3 12  1  0  0  0  0
  5  6  1  0  0  0  0
  5 19  1  0  0  0  0
  5 20  1  0  0  0  0
  6  7  2  0  0  0  0
  6  8  1  0  0  0  0
  7  9  1  0  0  0  0
  7 21  1  0  0  0  0
  8 10  2  0  0  0  0
  8 22  1  0  0  0  0
  9 11  2  0  0  0  0
  9 23  1  0  0  0  0
 10 11  1  0  0  0  0
 10 24  1  0  0  0  0
 11 25  1  0  0  0  0
 13 15  1  0  0  0  0
 13 14  2  0  0  0  0
 15 16  1  0  0  0  0
 15 26  1  0  0  0  0
 16 27  1  0  0  0  0
M  END
$$$$
