LM2
 OpenBabel04041917043D

 71 73  0  0  1  0  0  0  0  0999 V2000
   10.3740   16.8563   44.0730 C   0  0  0  0  0  0  0  0  0  0  0  0
    9.3027   16.8623   44.8881 N   0  3  0  0  0  0  0  0  0  0  0  0
    8.6253   15.6454   44.9861 O   0  0  0  0  0  0  0  0  0  0  0  0
   11.1362   18.1428   43.9385 C   0  0  2  0  0  0  0  0  0  0  0  0
   10.3616   19.2656   44.3768 O   0  0  0  0  0  0  0  0  0  0  0  0
   11.5898   18.2866   42.4866 C   0  0  1  0  0  0  0  0  0  0  0  0
   12.3331   19.4942   42.3244 O   0  0  0  0  0  0  0  0  0  0  0  0
   12.4659   17.0810   42.1119 C   0  0  2  0  0  0  0  0  0  0  0  0
   12.5176   17.0022   40.7234 O   0  0  0  0  0  0  0  0  0  0  0  0
   11.8644   15.7153   42.4501 C   0  0  2  0  0  0  0  0  0  0  0  0
   10.7279   15.7409   43.3971 N   0  0  0  0  0  0  0  0  0  0  0  0
   12.9635   14.8291   43.0345 C   0  0  0  0  0  0  0  0  0  0  0  0
   13.4582   15.4010   44.2394 O   0  0  0  0  0  0  0  0  0  0  0  0
   13.6241   17.6833   40.1180 C   0  0  2  0  0  0  0  0  0  0  0  0
   13.2510   17.9260   38.6388 C   0  0  1  0  0  0  0  0  0  0  0  0
   13.3054   16.6231   37.8058 C   0  0  2  0  0  0  0  0  0  0  0  0
   14.7334   16.0077   37.9552 C   0  0  1  0  0  0  0  0  0  0  0  0
   14.9537   15.7367   39.4922 C   0  0  1  0  0  0  0  0  0  0  0  0
   16.3313   15.1188   39.8086 C   0  0  0  0  0  0  0  0  0  0  0  0
   11.9643   18.5649   38.5338 O   0  0  0  0  0  0  0  0  0  0  0  0
   12.9989   16.9046   36.4370 O   0  0  0  0  0  0  0  0  0  0  0  0
   14.8318   14.7985   37.1557 O   0  0  0  0  0  0  0  0  0  0  0  0
   14.8479   16.9568   40.2765 O   0  0  0  0  0  0  0  0  0  0  0  0
   17.3757   15.9441   39.3073 O   0  0  0  0  0  0  0  0  0  0  0  0
   16.0730   14.7145   36.4006 C   0  0  2  0  0  0  0  0  0  0  0  0
   15.8523   14.7674   34.8537 C   0  0  1  0  0  0  0  0  0  0  0  0
   15.0724   13.4955   34.4222 C   0  0  2  0  0  0  0  0  0  0  0  0
   15.8724   12.2164   34.8254 C   0  0  1  0  0  0  0  0  0  0  0  0
   16.1001   12.2678   36.3721 C   0  0  1  0  0  0  0  0  0  0  0  0
   16.9243   11.0372   36.8527 C   0  0  0  0  0  0  0  0  0  0  0  0
   15.1846   15.9914   34.5070 O   0  0  0  0  0  0  0  0  0  0  0  0
   14.8683   13.5227   32.9903 O   0  0  0  0  0  0  0  0  0  0  0  0
   15.1352   11.0277   34.4254 O   0  0  0  0  0  0  0  0  0  0  0  0
   16.7752   13.5003   36.7656 O   0  0  0  0  0  0  0  0  0  0  0  0
   18.2346   11.0086   36.2822 O   0  0  0  0  0  0  0  0  0  0  0  0
   15.8479   10.1594   33.5234 C   0  0  0  0  0  0  0  0  0  0  0  0
    7.9041   15.8287   45.6180 H   0  0  0  0  0  0  0  0  0  0  0  0
   12.0037   18.1388   44.5974 H   0  0  0  0  0  0  0  0  0  0  0  0
    9.5682   19.3495   43.8410 H   0  0  0  0  0  0  0  0  0  0  0  0
   10.7438   18.3759   41.7988 H   0  0  0  0  0  0  0  0  0  0  0  0
   11.7401   20.2339   42.5301 H   0  0  0  0  0  0  0  0  0  0  0  0
   13.4741   17.1791   42.5227 H   0  0  0  0  0  0  0  0  0  0  0  0
   11.4956   15.2619   41.5220 H   0  0  0  0  0  0  0  0  0  0  0  0
   10.2370   14.8741   43.5541 H   0  0  0  0  0  0  0  0  0  0  0  0
   13.8096   14.7412   42.3415 H   0  0  0  0  0  0  0  0  0  0  0  0
   12.5678   13.8379   43.2575 H   0  0  0  0  0  0  0  0  0  0  0  0
   12.7221   15.4531   44.8755 H   0  0  0  0  0  0  0  0  0  0  0  0
   13.7064   18.6404   40.6423 H   0  0  0  0  0  0  0  0  0  0  0  0
   13.9838   18.6155   38.2087 H   0  0  0  0  0  0  0  0  0  0  0  0
   12.5569   15.8888   38.1417 H   0  0  0  0  0  0  0  0  0  0  0  0
   15.4504   16.7529   37.5801 H   0  0  0  0  0  0  0  0  0  0  0  0
   14.2167   15.0157   39.8742 H   0  0  0  0  0  0  0  0  0  0  0  0
   16.4359   14.1288   39.3467 H   0  0  0  0  0  0  0  0  0  0  0  0
   16.4906   15.0032   40.8947 H   0  0  0  0  0  0  0  0  0  0  0  0
   11.2891   17.9648   38.9036 H   0  0  0  0  0  0  0  0  0  0  0  0
   12.1023   17.2863   36.3550 H   0  0  0  0  0  0  0  0  0  0  0  0
   17.2789   16.8107   39.7470 H   0  0  0  0  0  0  0  0  0  0  0  0
   16.6954   15.5839   36.6585 H   0  0  0  0  0  0  0  0  0  0  0  0
   16.8255   14.7816   34.3338 H   0  0  0  0  0  0  0  0  0  0  0  0
   14.0747   13.4924   34.8871 H   0  0  0  0  0  0  0  0  0  0  0  0
   16.8320   12.2447   34.2885 H   0  0  0  0  0  0  0  0  0  0  0  0
   15.1401   12.2120   36.9079 H   0  0  0  0  0  0  0  0  0  0  0  0
   16.4277   10.0954   36.5630 H   0  0  0  0  0  0  0  0  0  0  0  0
   17.0376   11.0211   37.9462 H   0  0  0  0  0  0  0  0  0  0  0  0
   15.0190   16.0068   33.5460 H   0  0  0  0  0  0  0  0  0  0  0  0
   14.3932   12.6946   32.7607 H   0  0  0  0  0  0  0  0  0  0  0  0
   18.6941   11.8257   36.5663 H   0  0  0  0  0  0  0  0  0  0  0  0
   15.2346    9.2725   33.2994 H   0  0  0  0  0  0  0  0  0  0  0  0
   16.7879    9.8153   33.9651 H   0  0  0  0  0  0  0  0  0  0  0  0
   16.0509   10.6743   32.5790 H   0  0  0  0  0  0  0  0  0  0  0  0
    9.0105   17.6820   45.4171 H   0  0  0  0  0  0  0  0  0  0  0  0
  1  2  2  0  0  0  0
  1  4  1  0  0  0  0
  1 11  1  0  0  0  0
  2  3  1  0  0  0  0
  2 71  1  0  0  0  0
  3 37  1  0  0  0  0
  4  5  1  0  0  0  0
  4  6  1  0  0  0  0
  4 38  1  1  0  0  0
  5 39  1  0  0  0  0
  6  7  1  0  0  0  0
  6  8  1  0  0  0  0
  6 40  1  6  0  0  0
  7 41  1  0  0  0  0
  8  9  1  0  0  0  0
  8 10  1  0  0  0  0
  8 42  1  1  0  0  0
  9 14  1  0  0  0  0
 10 11  1  0  0  0  0
 10 12  1  0  0  0  0
 10 43  1  6  0  0  0
 11 44  1  0  0  0  0
 12 13  1  0  0  0  0
 12 45  1  0  0  0  0
 12 46  1  0  0  0  0
 13 47  1  0  0  0  0
 14 15  1  0  0  0  0
 14 23  1  0  0  0  0
 14 48  1  1  0  0  0
 15 16  1  0  0  0  0
 15 20  1  0  0  0  0
 15 49  1  6  0  0  0
 16 17  1  0  0  0  0
 16 21  1  0  0  0  0
 16 50  1  1  0  0  0
 17 18  1  0  0  0  0
 17 22  1  0  0  0  0
 17 51  1  6  0  0  0
 18 19  1  0  0  0  0
 18 23  1  0  0  0  0
 18 52  1  1  0  0  0
 19 24  1  0  0  0  0
 19 53  1  0  0  0  0
 19 54  1  0  0  0  0
 20 55  1  0  0  0  0
 21 56  1  0  0  0  0
 22 25  1  0  0  0  0
 24 57  1  0  0  0  0
 25 26  1  0  0  0  0
 25 34  1  0  0  0  0
 25 58  1  1  0  0  0
 26 27  1  0  0  0  0
 26 31  1  0  0  0  0
 26 59  1  6  0  0  0
 27 28  1  0  0  0  0
 27 32  1  0  0  0  0
 27 60  1  1  0  0  0
 28 29  1  0  0  0  0
 28 33  1  0  0  0  0
 28 61  1  6  0  0  0
 29 30  1  0  0  0  0
 29 34  1  0  0  0  0
 29 62  1  1  0  0  0
 30 35  1  0  0  0  0
 30 63  1  0  0  0  0
 30 64  1  0  0  0  0
 31 65  1  0  0  0  0
 32 66  1  0  0  0  0
 33 36  1  0  0  0  0
 35 67  1  0  0  0  0
 36 68  1  0  0  0  0
 36 69  1  0  0  0  0
 36 70  1  0  0  0  0
M  CHG  1   2   1
M  END
$$$$
