MAQ
 OpenBabel04041916473D

 22 23  0  0  0  0  0  0  0  0999 V2000
   17.1057   16.7672   18.7979 C   0  0  0  0  0  0  0  0  0  0  0  0
   16.0796   16.4860   19.7459 C   0  0  0  0  0  0  0  0  0  0  0  0
   14.7239   15.9224   19.3043 C   0  0  0  0  0  0  0  0  0  0  0  0
   16.3305   16.7390   21.1304 C   0  0  0  0  0  0  0  0  0  0  0  0
   15.3170   16.4661   22.0912 N   0  0  0  0  0  0  0  0  0  0  0  0
   15.4981   16.6815   23.3479 C   0  0  0  0  0  0  0  0  0  0  0  0
   14.5272   16.4174   24.2323 N   0  0  0  0  0  0  0  0  0  0  0  0
   16.6707   17.1834   23.8504 N   0  3  0  0  0  0  0  0  0  0  0  0
   17.7501   17.4946   23.0191 C   0  0  0  0  0  0  0  0  0  0  0  0
   18.7831   17.9413   23.4965 O   0  0  0  0  0  0  0  0  0  0  0  0
   17.5728   17.2567   21.5453 C   0  0  0  0  0  0  0  0  0  0  0  0
   18.5914   17.5344   20.5933 C   0  0  0  0  0  0  0  0  0  0  0  0
   18.3557   17.2887   19.2190 C   0  0  0  0  0  0  0  0  0  0  0  0
   16.9414   16.5845   17.7324 H   0  0  0  0  0  0  0  0  0  0  0  0
   14.6686   15.7764   18.2144 H   0  0  0  0  0  0  0  0  0  0  0  0
   13.9070   16.6043   19.5901 H   0  0  0  0  0  0  0  0  0  0  0  0
   14.5336   14.9471   19.7802 H   0  0  0  0  0  0  0  0  0  0  0  0
   13.6593   16.0459   23.8655 H   0  0  0  0  0  0  0  0  0  0  0  0
   14.6356   16.5756   25.2167 H   0  0  0  0  0  0  0  0  0  0  0  0
   16.7722   17.3397   24.8477 H   0  0  0  0  0  0  0  0  0  0  0  0
   19.5550   17.9368   20.9146 H   0  0  0  0  0  0  0  0  0  0  0  0
   19.1397   17.5014   18.4775 H   0  0  0  0  0  0  0  0  0  0  0  0
  1  2  2  0  0  0  0
  1 13  1  0  0  0  0
  1 14  1  0  0  0  0
  2  3  1  0  0  0  0
  2  4  1  0  0  0  0
  3 15  1  0  0  0  0
  3 16  1  0  0  0  0
  3 17  1  0  0  0  0
  4  5  1  0  0  0  0
  4 11  2  0  0  0  0
  5  6  2  0  0  0  0
  6  7  1  0  0  0  0
  6  8  1  0  0  0  0
  7 18  1  0  0  0  0
  7 19  1  0  0  0  0
  8  9  1  0  0  0  0
  8 20  1  0  0  0  0
  9 10  2  0  0  0  0
  9 11  1  0  0  0  0
 11 12  1  0  0  0  0
 12 13  2  0  0  0  0
 12 21  1  0  0  0  0
 13 22  1  0  0  0  0
M  CHG  1   8   1
M  END
$$$$
