MIN
 OpenBabel04041917003D

 64 66  0  0  1  0  0  0  0  0999 V2000
   10.2619  -12.7812   23.5439 N   0  3  0  0  0  0  0  0  0  0  0  0
   11.3238  -12.7751   22.5050 C   0  0  2  0  0  0  0  0  0  0  0  0
   12.6097  -13.3040   23.1319 C   0  0  0  0  0  0  0  0  0  0  0  0
   13.7652  -13.2427   22.1359 C   0  0  0  0  0  0  0  0  0  0  0  0
   13.9561  -11.8210   21.5747 C   0  0  2  0  0  0  0  0  0  0  0  0
   12.6437  -11.3002   20.9695 C   0  0  0  0  0  0  0  0  0  0  0  0
   11.5021  -11.3531   21.9825 C   0  0  0  0  0  0  0  0  0  0  0  0
   15.0632  -11.7672   20.5139 C   0  0  0  0  0  0  0  0  0  0  0  0
   16.3787  -11.9214   21.0903 N   0  0  0  0  0  0  0  0  0  0  0  0
   17.0939  -13.0898   20.9435 C   0  0  0  0  0  0  0  0  0  0  0  0
   16.6363  -14.0836   20.3682 O   0  0  0  0  0  0  0  0  0  0  0  0
   18.4901  -13.0955   21.5903 C   0  0  2  0  0  0  0  0  0  0  0  0
   19.5716  -13.0506   20.5021 C   0  0  0  0  0  0  0  0  0  0  0  0
   20.5778  -14.1172   20.9178 C   0  0  0  0  0  0  0  0  0  0  0  0
   19.7215  -15.1611   21.6007 C   0  0  0  0  0  0  0  0  0  0  0  0
   18.6627  -14.3996   22.2456 N   0  0  0  0  0  0  0  0  0  0  0  0
   17.8499  -14.7956   23.2763 C   0  0  0  0  0  0  0  0  0  0  0  0
   16.9518  -14.0778   23.7449 O   0  0  0  0  0  0  0  0  0  0  0  0
   15.8572  -17.0162   22.5637 C   0  0  0  0  0  0  0  0  0  0  0  0
   16.5924  -16.9084   23.8520 N   0  3  0  0  0  0  0  0  0  0  0  0
   17.9754  -16.2410   23.7931 C   0  0  2  0  0  0  0  0  0  0  0  0
   18.5147  -16.2272   25.2327 C   0  0  0  0  0  0  0  0  0  0  0  0
   19.8585  -15.5681   25.3774 C   0  0  0  0  0  0  0  0  0  0  0  0
   21.0135  -16.1753   24.8690 C   0  0  0  0  0  0  0  0  0  0  0  0
   22.2462  -15.5321   24.9673 C   0  0  0  0  0  0  0  0  0  0  0  0
   22.3417  -14.2934   25.5973 C   0  0  0  0  0  0  0  0  0  0  0  0
   21.2027  -13.6939   26.1303 C   0  0  0  0  0  0  0  0  0  0  0  0
   19.9655  -14.3248   26.0186 C   0  0  0  0  0  0  0  0  0  0  0  0
   10.0822  -13.7293   23.8963 H   0  0  0  0  0  0  0  0  0  0  0  0
   10.5009  -12.1854   24.3456 H   0  0  0  0  0  0  0  0  0  0  0  0
   10.9812  -13.4392   21.7057 H   0  0  0  0  0  0  0  0  0  0  0  0
   12.4722  -14.3372   23.4723 H   0  0  0  0  0  0  0  0  0  0  0  0
   12.8702  -12.7108   24.0180 H   0  0  0  0  0  0  0  0  0  0  0  0
   13.5741  -13.9482   21.3173 H   0  0  0  0  0  0  0  0  0  0  0  0
   14.6768  -13.5791   22.6378 H   0  0  0  0  0  0  0  0  0  0  0  0
   14.2333  -11.1615   22.4094 H   0  0  0  0  0  0  0  0  0  0  0  0
   12.3771  -11.8956   20.0862 H   0  0  0  0  0  0  0  0  0  0  0  0
   12.7751  -10.2657   20.6287 H   0  0  0  0  0  0  0  0  0  0  0  0
   11.7284  -10.6694   22.8101 H   0  0  0  0  0  0  0  0  0  0  0  0
   10.5798  -10.9950   21.5137 H   0  0  0  0  0  0  0  0  0  0  0  0
   15.0624  -10.7972   20.0078 H   0  0  0  0  0  0  0  0  0  0  0  0
   14.8912  -12.5382   19.7541 H   0  0  0  0  0  0  0  0  0  0  0  0
   16.7358  -11.1893   21.6959 H   0  0  0  0  0  0  0  0  0  0  0  0
   18.6040  -12.3000   22.3353 H   0  0  0  0  0  0  0  0  0  0  0  0
   20.0390  -12.0642   20.4202 H   0  0  0  0  0  0  0  0  0  0  0  0
   19.1647  -13.2990   19.5144 H   0  0  0  0  0  0  0  0  0  0  0  0
   21.2940  -13.6932   21.6319 H   0  0  0  0  0  0  0  0  0  0  0  0
   21.1404  -14.5285   20.0752 H   0  0  0  0  0  0  0  0  0  0  0  0
   20.2906  -15.7514   22.3177 H   0  0  0  0  0  0  0  0  0  0  0  0
   19.2494  -15.8381   20.8763 H   0  0  0  0  0  0  0  0  0  0  0  0
   14.9121  -17.5198   22.7858 H   0  0  0  0  0  0  0  0  0  0  0  0
   16.4509  -17.6114   21.8679 H   0  0  0  0  0  0  0  0  0  0  0  0
   15.6560  -16.0150   22.1799 H   0  0  0  0  0  0  0  0  0  0  0  0
   16.6905  -17.8430   24.2683 H   0  0  0  0  0  0  0  0  0  0  0  0
   18.5724  -16.8710   23.1315 H   0  0  0  0  0  0  0  0  0  0  0  0
   18.5888  -17.2550   25.6095 H   0  0  0  0  0  0  0  0  0  0  0  0
   17.7942  -15.7209   25.8903 H   0  0  0  0  0  0  0  0  0  0  0  0
   20.9740  -17.1492   24.3865 H   0  0  0  0  0  0  0  0  0  0  0  0
   23.1419  -16.0001   24.5635 H   0  0  0  0  0  0  0  0  0  0  0  0
   23.3069  -13.8012   25.6879 H   0  0  0  0  0  0  0  0  0  0  0  0
   21.2848  -12.7371   26.6421 H   0  0  0  0  0  0  0  0  0  0  0  0
   19.0931  -13.8350   26.4469 H   0  0  0  0  0  0  0  0  0  0  0  0
    9.3706  -12.4311   23.1656 H   0  0  0  0  0  0  0  0  0  0  0  0
   16.0234  -16.3396   24.4949 H   0  0  0  0  0  0  0  0  0  0  0  0
  1  2  1  0  0  0  0
  1 29  1  0  0  0  0
  1 30  1  0  0  0  0
  1 63  1  0  0  0  0
  2  7  1  0  0  0  0
  2  3  1  0  0  0  0
  2 31  1  6  0  0  0
  3  4  1  0  0  0  0
  3 32  1  0  0  0  0
  3 33  1  0  0  0  0
  4  5  1  0  0  0  0
  4 34  1  0  0  0  0
  4 35  1  0  0  0  0
  5  8  1  0  0  0  0
  5  6  1  0  0  0  0
  5 36  1  1  0  0  0
  6  7  1  0  0  0  0
  6 37  1  0  0  0  0
  6 38  1  0  0  0  0
  7 39  1  0  0  0  0
  7 40  1  0  0  0  0
  8  9  1  0  0  0  0
  8 41  1  0  0  0  0
  8 42  1  0  0  0  0
  9 10  1  0  0  0  0
  9 43  1  0  0  0  0
 10 12  1  0  0  0  0
 10 11  2  0  0  0  0
 12 16  1  0  0  0  0
 12 13  1  0  0  0  0
 12 44  1  1  0  0  0
 13 14  1  0  0  0  0
 13 45  1  0  0  0  0
 13 46  1  0  0  0  0
 14 15  1  0  0  0  0
 14 47  1  0  0  0  0
 14 48  1  0  0  0  0
 15 16  1  0  0  0  0
 15 49  1  0  0  0  0
 15 50  1  0  0  0  0
 16 17  1  0  0  0  0
 17 21  1  0  0  0  0
 17 18  2  0  0  0  0
 19 20  1  0  0  0  0
 19 51  1  0  0  0  0
 19 52  1  0  0  0  0
 19 53  1  0  0  0  0
 20 21  1  0  0  0  0
 20 54  1  0  0  0  0
 20 64  1  0  0  0  0
 21 22  1  0  0  0  0
 21 55  1  6  0  0  0
 22 23  1  0  0  0  0
 22 56  1  0  0  0  0
 22 57  1  0  0  0  0
 23 28  2  0  0  0  0
 23 24  1  0  0  0  0
 24 25  2  0  0  0  0
 24 58  1  0  0  0  0
 25 26  1  0  0  0  0
 25 59  1  0  0  0  0
 26 27  2  0  0  0  0
 26 60  1  0  0  0  0
 27 28  1  0  0  0  0
 27 61  1  0  0  0  0
 28 62  1  0  0  0  0
M  CHG  2   1   1  20   1
M  END
$$$$
