MJI
 OpenBabel04041914573D

 75 74  0  0  1  0  0  0  0  0999 V2000
   17.6646   14.6230   11.8427 C   0  0  0  0  0  0  0  0  0  0  0  0
   16.9677   15.8046   12.2323 O   0  0  0  0  0  0  0  0  0  0  0  0
   18.5486   14.9178   10.6488 C   0  0  1  0  0  0  0  0  0  0  0  0
   17.8578   15.7004    9.6938 O   0  0  0  0  0  0  0  0  0  0  0  0
   19.7669   15.7044   11.1535 C   0  0  0  0  0  0  0  0  0  0  0  0
   20.4347   16.3957   10.1055 O   0  0  0  0  0  0  0  0  0  0  0  0
   21.2722   15.5096    9.3631 C   0  0  0  0  0  0  0  0  0  0  0  0
   22.2783   16.3108    8.5570 C   0  0  0  0  0  0  0  0  0  0  0  0
   17.3163   15.0350    8.3079 P   0  0  1  0  0  0  0  0  0  0  0  0
   16.9049   16.1238    7.3794 O   0  0  0  0  0  0  0  0  0  0  0  0
   18.3333   13.9658    7.8910 O   0  0  0  0  0  0  0  0  0  0  0  0
   14.9234   15.0092    9.3738 C   0  0  0  0  0  0  0  0  0  0  0  0
   16.0033   14.2512    8.8607 O   0  0  0  0  0  0  0  0  0  0  0  0
   16.1908   15.5698   13.3917 C   0  0  0  0  0  0  0  0  0  0  0  0
   15.0037   16.5119   13.3627 C   0  0  0  0  0  0  0  0  0  0  0  0
   15.1528   17.5494   14.4579 C   0  0  0  0  0  0  0  0  0  0  0  0
   14.6928   16.9765   15.7930 C   0  0  0  0  0  0  0  0  0  0  0  0
   15.4566   17.6192   16.9347 C   0  0  0  0  0  0  0  0  0  0  0  0
   15.9529   16.5498   17.8980 C   0  0  0  0  0  0  0  0  0  0  0  0
   17.4390   16.7449   18.1556 C   0  0  0  0  0  0  0  0  0  0  0  0
   17.6350   17.6630   19.3514 C   0  0  0  0  0  0  0  0  0  0  0  0
   17.9334   16.8262   20.5836 C   0  0  0  0  0  0  0  0  0  0  0  0
   19.3879   16.9977   20.9811 C   0  0  0  0  0  0  0  0  0  0  0  0
   19.7020   16.1492   22.1976 C   0  0  0  0  0  0  0  0  0  0  0  0
   20.3420   14.8375   21.7770 C   0  0  0  0  0  0  0  0  0  0  0  0
   21.1205   14.2468   22.9395 C   0  0  0  0  0  0  0  0  0  0  0  0
   21.1491   12.7324   22.8531 C   0  0  0  0  0  0  0  0  0  0  0  0
   21.7443   12.1494   24.1239 C   0  0  0  0  0  0  0  0  0  0  0  0
   22.1983   10.7299   23.8798 C   0  0  0  0  0  0  0  0  0  0  0  0
   23.0076   17.1430    9.3378 F   0  0  0  0  0  0  0  0  0  0  0  0
   21.7368   17.0172    7.5651 F   0  0  0  0  0  0  0  0  0  0  0  0
   23.1723   15.4501    8.0055 F   0  0  0  0  0  0  0  0  0  0  0  0
   18.2607   14.2717   12.6942 H   0  0  0  0  0  0  0  0  0  0  0  0
   16.9416   13.8528   11.5655 H   0  0  0  0  0  0  0  0  0  0  0  0
   18.9035   13.9797   10.2279 H   0  0  0  0  0  0  0  0  0  0  0  0
   20.4740   15.0271   11.6526 H   0  0  0  0  0  0  0  0  0  0  0  0
   19.4830   16.4606   11.8897 H   0  0  0  0  0  0  0  0  0  0  0  0
   20.6894   14.8661    8.6959 H   0  0  0  0  0  0  0  0  0  0  0  0
   21.8171   14.8687   10.0675 H   0  0  0  0  0  0  0  0  0  0  0  0
   14.1240   14.3143    9.6526 H   0  0  0  0  0  0  0  0  0  0  0  0
   14.5344   15.7139    8.6379 H   0  0  0  0  0  0  0  0  0  0  0  0
   15.2406   15.5429   10.2682 H   0  0  0  0  0  0  0  0  0  0  0  0
   16.8384   15.7493   14.2589 H   0  0  0  0  0  0  0  0  0  0  0  0
   15.8513   14.5301   13.4137 H   0  0  0  0  0  0  0  0  0  0  0  0
   14.0881   15.9340   13.5246 H   0  0  0  0  0  0  0  0  0  0  0  0
   14.9329   17.0122   12.3928 H   0  0  0  0  0  0  0  0  0  0  0  0
   14.5643   18.4373   14.2241 H   0  0  0  0  0  0  0  0  0  0  0  0
   16.2057   17.8566   14.5202 H   0  0  0  0  0  0  0  0  0  0  0  0
   14.8445   15.8915   15.7932 H   0  0  0  0  0  0  0  0  0  0  0  0
   13.6193   17.1486   15.9225 H   0  0  0  0  0  0  0  0  0  0  0  0
   14.8156   18.3326   17.4608 H   0  0  0  0  0  0  0  0  0  0  0  0
   16.3046   18.1907   16.5400 H   0  0  0  0  0  0  0  0  0  0  0  0
   15.7992   15.5476   17.4895 H   0  0  0  0  0  0  0  0  0  0  0  0
   15.3858   16.6069   18.8338 H   0  0  0  0  0  0  0  0  0  0  0  0
   17.9292   17.1735   17.2758 H   0  0  0  0  0  0  0  0  0  0  0  0
   17.9079   15.7707   18.3301 H   0  0  0  0  0  0  0  0  0  0  0  0
   16.7359   18.2648   19.5267 H   0  0  0  0  0  0  0  0  0  0  0  0
   18.4589   18.3558   19.1511 H   0  0  0  0  0  0  0  0  0  0  0  0
   17.7308   15.7642   20.3971 H   0  0  0  0  0  0  0  0  0  0  0  0
   17.2859   17.1368   21.4102 H   0  0  0  0  0  0  0  0  0  0  0  0
   19.5819   18.0525   21.2080 H   0  0  0  0  0  0  0  0  0  0  0  0
   20.0350   16.7197   20.1402 H   0  0  0  0  0  0  0  0  0  0  0  0
   18.7842   15.9391   22.7617 H   0  0  0  0  0  0  0  0  0  0  0  0
   20.3788   16.6987   22.8589 H   0  0  0  0  0  0  0  0  0  0  0  0
   21.0245   14.9956   20.9327 H   0  0  0  0  0  0  0  0  0  0  0  0
   19.5623   14.1425   21.4454 H   0  0  0  0  0  0  0  0  0  0  0  0
   20.6657   14.5527   23.8861 H   0  0  0  0  0  0  0  0  0  0  0  0
   22.1481   14.6364   22.9199 H   0  0  0  0  0  0  0  0  0  0  0  0
   21.7375   12.4290   21.9805 H   0  0  0  0  0  0  0  0  0  0  0  0
   20.1287   12.3519   22.7193 H   0  0  0  0  0  0  0  0  0  0  0  0
   20.9911   12.1670   24.9208 H   0  0  0  0  0  0  0  0  0  0  0  0
   22.5938   12.7569   24.4489 H   0  0  0  0  0  0  0  0  0  0  0  0
   22.6308   10.3071   24.7912 H   0  0  0  0  0  0  0  0  0  0  0  0
   22.9605   10.7057   23.0941 H   0  0  0  0  0  0  0  0  0  0  0  0
   21.3580   10.1052   23.5672 H   0  0  0  0  0  0  0  0  0  0  0  0
  1  3  1  0  0  0  0
  1  2  1  0  0  0  0
  1 33  1  0  0  0  0
  1 34  1  0  0  0  0
  2 14  1  0  0  0  0
  3  5  1  0  0  0  0
  3  4  1  0  0  0  0
  3 35  1  6  0  0  0
  5  6  1  0  0  0  0
  5 36  1  0  0  0  0
  5 37  1  0  0  0  0
  6  7  1  0  0  0  0
  7  8  1  0  0  0  0
  7 38  1  0  0  0  0
  7 39  1  0  0  0  0
  8 30  1  0  0  0  0
  8 32  1  0  0  0  0
  8 31  1  0  0  0  0
  9  4  1  1  0  0  0
  9 13  1  0  0  0  0
  9 11  2  0  0  0  0
  9 10  1  0  0  0  0
 12 13  1  0  0  0  0
 12 40  1  0  0  0  0
 12 41  1  0  0  0  0
 12 42  1  0  0  0  0
 14 15  1  0  0  0  0
 14 43  1  0  0  0  0
 14 44  1  0  0  0  0
 15 16  1  0  0  0  0
 15 45  1  0  0  0  0
 15 46  1  0  0  0  0
 16 17  1  0  0  0  0
 16 47  1  0  0  0  0
 16 48  1  0  0  0  0
 17 18  1  0  0  0  0
 17 49  1  0  0  0  0
 17 50  1  0  0  0  0
 18 19  1  0  0  0  0
 18 51  1  0  0  0  0
 18 52  1  0  0  0  0
 19 20  1  0  0  0  0
 19 53  1  0  0  0  0
 19 54  1  0  0  0  0
 20 21  1  0  0  0  0
 20 55  1  0  0  0  0
 20 56  1  0  0  0  0
 21 22  1  0  0  0  0
 21 57  1  0  0  0  0
 21 58  1  0  0  0  0
 22 23  1  0  0  0  0
 22 59  1  0  0  0  0
 22 60  1  0  0  0  0
 23 24  1  0  0  0  0
 23 61  1  0  0  0  0
 23 62  1  0  0  0  0
 24 25  1  0  0  0  0
 24 63  1  0  0  0  0
 24 64  1  0  0  0  0
 25 26  1  0  0  0  0
 25 65  1  0  0  0  0
 25 66  1  0  0  0  0
 26 27  1  0  0  0  0
 26 67  1  0  0  0  0
 26 68  1  0  0  0  0
 27 28  1  0  0  0  0
 27 69  1  0  0  0  0
 27 70  1  0  0  0  0
 28 29  1  0  0  0  0
 28 71  1  0  0  0  0
 28 72  1  0  0  0  0
 29 73  1  0  0  0  0
 29 74  1  0  0  0  0
 29 75  1  0  0  0  0
M  END
$$$$
