MK1
 OpenBabel04041915163D

 93 97  0  0  1  0  0  0  0  0999 V2000
    3.3088   -5.4657   16.2151 N   0  0  0  0  0  0  0  0  0  0  0  0
    4.6692   -5.2696   15.6748 C   0  0  0  0  0  0  0  0  0  0  0  0
    5.4267   -4.0936   16.3082 C   0  0  1  0  0  0  0  0  0  0  0  0
    6.8181   -4.0396   15.6280 C   0  0  0  0  0  0  0  0  0  0  0  0
    6.9396   -3.5385   14.5372 O   0  0  0  0  0  0  0  0  0  0  0  0
    7.8452   -4.6241   16.3555 N   0  0  0  0  0  0  0  0  0  0  0  0
    9.2641   -4.7638   16.0166 C   0  0  0  0  0  0  0  0  0  0  0  0
    9.9730   -5.4787   17.1613 C   0  0  0  0  0  0  0  0  0  0  0  0
    9.9332   -3.4417   15.8411 C   0  0  0  0  0  0  0  0  0  0  0  0
    9.5371   -5.5586   14.7660 C   0  0  0  0  0  0  0  0  0  0  0  0
    4.5771   -2.8529   15.9745 N   0  3  1  0  0  0  0  0  0  0  0  0
    3.1048   -2.9798   16.3147 C   0  0  0  0  0  0  0  0  0  0  0  0
    2.4949   -4.2934   15.8295 C   0  0  0  0  0  0  0  0  0  0  0  0
    5.1203   -1.5892   16.4839 C   0  0  0  0  0  0  0  0  0  0  0  0
    5.1145   -0.4561   15.4515 C   0  0  1  0  0  0  0  0  0  0  0  0
    5.0924    0.6627   16.3348 O   0  0  0  0  0  0  0  0  0  0  0  0
    6.3366   -0.2663   14.5423 C   0  0  0  0  0  0  0  0  0  0  0  0
    6.2547    0.8691   13.4774 C   0  0  1  0  0  0  0  0  0  0  0  0
    7.5850    0.9597   12.6813 C   0  0  0  0  0  0  0  0  0  0  0  0
    7.6003    2.0041   11.5816 C   0  0  0  0  0  0  0  0  0  0  0  0
    7.4345    3.3689   11.8746 C   0  0  0  0  0  0  0  0  0  0  0  0
    7.4082    4.3088   10.8364 C   0  0  0  0  0  0  0  0  0  0  0  0
    7.5622    3.8884    9.5095 C   0  0  0  0  0  0  0  0  0  0  0  0
    7.7393    2.5314    9.2097 C   0  0  0  0  0  0  0  0  0  0  0  0
    7.7596    1.5907   10.2456 C   0  0  0  0  0  0  0  0  0  0  0  0
    5.0997    0.6017   12.4812 C   0  0  0  0  0  0  0  0  0  0  0  0
    4.7808   -0.4806   12.1203 O   0  0  0  0  0  0  0  0  0  0  0  0
    4.4688    1.7694   12.0867 N   0  0  0  0  0  0  0  0  0  0  0  0
    3.4054    1.7867   11.0839 C   0  0  2  0  0  0  0  0  0  0  0  0
    3.3588    3.1636   10.3823 C   0  0  2  0  0  0  0  0  0  0  0  0
    3.7626    4.2035   11.2976 O   0  0  0  0  0  0  0  0  0  0  0  0
    1.9013    3.3253    9.8972 C   0  0  0  0  0  0  0  0  0  0  0  0
    1.0925    2.5381   10.8986 C   0  0  0  0  0  0  0  0  0  0  0  0
   -0.3123    2.5986   11.1435 C   0  0  0  0  0  0  0  0  0  0  0  0
   -0.8158    1.7310   12.1290 C   0  0  0  0  0  0  0  0  0  0  0  0
    0.0487    0.8479   12.8148 C   0  0  0  0  0  0  0  0  0  0  0  0
    1.4335    0.7974   12.5387 C   0  0  0  0  0  0  0  0  0  0  0  0
    1.9539    1.6674   11.5803 C   0  0  0  0  0  0  0  0  0  0  0  0
    2.6514   -6.6909   15.6754 C   0  0  0  0  0  0  0  0  0  0  0  0
    3.2609   -8.0333   16.0517 C   0  0  0  0  0  0  0  0  0  0  0  0
    3.2943   -8.5442   17.3515 C   0  0  0  0  0  0  0  0  0  0  0  0
    3.8310   -9.7580   17.6799 N   0  0  0  0  0  0  0  0  0  0  0  0
    4.3394  -10.5086   16.6644 C   0  0  0  0  0  0  0  0  0  0  0  0
    4.3333  -10.0885   15.3393 C   0  0  0  0  0  0  0  0  0  0  0  0
    3.7836   -8.8416   15.0311 C   0  0  0  0  0  0  0  0  0  0  0  0
    4.6247   -5.0593   14.5987 H   0  0  0  0  0  0  0  0  0  0  0  0
    5.2504   -6.1627   15.8601 H   0  0  0  0  0  0  0  0  0  0  0  0
    5.5608   -4.1709   17.4018 H   0  0  0  0  0  0  0  0  0  0  0  0
    7.6134   -5.0043   17.2615 H   0  0  0  0  0  0  0  0  0  0  0  0
   11.0398   -5.5913   16.9431 H   0  0  0  0  0  0  0  0  0  0  0  0
    9.5327   -6.4690   17.2936 H   0  0  0  0  0  0  0  0  0  0  0  0
    9.8621   -4.9110   18.0882 H   0  0  0  0  0  0  0  0  0  0  0  0
   10.9917   -3.6162   15.5923 H   0  0  0  0  0  0  0  0  0  0  0  0
    9.8574   -2.8870   16.7808 H   0  0  0  0  0  0  0  0  0  0  0  0
    9.4473   -2.8968   15.0258 H   0  0  0  0  0  0  0  0  0  0  0  0
   10.6213   -5.5993   14.5937 H   0  0  0  0  0  0  0  0  0  0  0  0
    9.0602   -5.0869   13.9046 H   0  0  0  0  0  0  0  0  0  0  0  0
    9.1591   -6.5716   14.9060 H   0  0  0  0  0  0  0  0  0  0  0  0
    2.6068   -2.1403   15.8260 H   0  0  0  0  0  0  0  0  0  0  0  0
    3.0074   -2.8973   17.4032 H   0  0  0  0  0  0  0  0  0  0  0  0
    1.4994   -4.3810   16.2863 H   0  0  0  0  0  0  0  0  0  0  0  0
    2.3789   -4.2437   14.7350 H   0  0  0  0  0  0  0  0  0  0  0  0
    6.1163   -1.7339   16.8955 H   0  0  0  0  0  0  0  0  0  0  0  0
    4.4571   -1.3096   17.3211 H   0  0  0  0  0  0  0  0  0  0  0  0
    4.1938   -0.5022   14.8377 H   0  0  0  0  0  0  0  0  0  0  0  0
    4.3721    0.5227   16.9694 H   0  0  0  0  0  0  0  0  0  0  0  0
    6.5423   -1.1916   14.0110 H   0  0  0  0  0  0  0  0  0  0  0  0
    7.1822   -0.0093   15.1928 H   0  0  0  0  0  0  0  0  0  0  0  0
    6.1010    1.8264   13.9892 H   0  0  0  0  0  0  0  0  0  0  0  0
    7.8073   -0.0203   12.2300 H   0  0  0  0  0  0  0  0  0  0  0  0
    8.4148    1.1891   13.3695 H   0  0  0  0  0  0  0  0  0  0  0  0
    7.3054    3.6980   12.9089 H   0  0  0  0  0  0  0  0  0  0  0  0
    7.2724    5.3693   11.0668 H   0  0  0  0  0  0  0  0  0  0  0  0
    7.5518    4.6167    8.7021 H   0  0  0  0  0  0  0  0  0  0  0  0
    7.8649    2.1982    8.1776 H   0  0  0  0  0  0  0  0  0  0  0  0
    7.8929    0.5295   10.0150 H   0  0  0  0  0  0  0  0  0  0  0  0
    4.8069    2.6599   12.4202 H   0  0  0  0  0  0  0  0  0  0  0  0
    3.6216    1.0166   10.3330 H   0  0  0  0  0  0  0  0  0  0  0  0
    4.0481    3.1960    9.5300 H   0  0  0  0  0  0  0  0  0  0  0  0
    3.6939    5.0589   10.8302 H   0  0  0  0  0  0  0  0  0  0  0  0
    1.8313    2.8682    8.9031 H   0  0  0  0  0  0  0  0  0  0  0  0
    1.6453    4.3867    9.8679 H   0  0  0  0  0  0  0  0  0  0  0  0
   -0.9771    3.2808   10.6176 H   0  0  0  0  0  0  0  0  0  0  0  0
   -1.8834    1.7244   12.3782 H   0  0  0  0  0  0  0  0  0  0  0  0
   -0.3564    0.1834   13.5813 H   0  0  0  0  0  0  0  0  0  0  0  0
    2.0632    0.0992   13.0749 H   0  0  0  0  0  0  0  0  0  0  0  0
    2.6307   -6.6207   14.5734 H   0  0  0  0  0  0  0  0  0  0  0  0
    1.6041   -6.6946   16.0195 H   0  0  0  0  0  0  0  0  0  0  0  0
    2.8806   -7.9491   18.1683 H   0  0  0  0  0  0  0  0  0  0  0  0
    4.7736  -11.4813   16.9029 H   0  0  0  0  0  0  0  0  0  0  0  0
    4.7499  -10.7183   14.5528 H   0  0  0  0  0  0  0  0  0  0  0  0
    3.7640   -8.4948   13.9960 H   0  0  0  0  0  0  0  0  0  0  0  0
    4.6539   -2.8081   14.9443 H   0  0  0  0  0  0  0  0  0  0  0  0
  1 39  1  0  0  0  0
  1 13  1  0  0  0  0
  1  2  1  0  0  0  0
  2  3  1  0  0  0  0
  2 46  1  0  0  0  0
  2 47  1  0  0  0  0
  3 11  1  0  0  0  0
  3  4  1  0  0  0  0
  3 48  1  1  0  0  0
  4  6  1  0  0  0  0
  4  5  2  0  0  0  0
  6  7  1  0  0  0  0
  6 49  1  0  0  0  0
  7 10  1  0  0  0  0
  7  9  1  0  0  0  0
  7  8  1  0  0  0  0
  8 50  1  0  0  0  0
  8 51  1  0  0  0  0
  8 52  1  0  0  0  0
  9 53  1  0  0  0  0
  9 54  1  0  0  0  0
  9 55  1  0  0  0  0
 10 56  1  0  0  0  0
 10 57  1  0  0  0  0
 10 58  1  0  0  0  0
 11 14  1  0  0  0  0
 11 12  1  0  0  0  0
 11 93  1  6  0  0  0
 12 13  1  0  0  0  0
 12 59  1  0  0  0  0
 12 60  1  0  0  0  0
 13 61  1  0  0  0  0
 13 62  1  0  0  0  0
 14 15  1  0  0  0  0
 14 63  1  0  0  0  0
 14 64  1  0  0  0  0
 15 17  1  0  0  0  0
 15 16  1  0  0  0  0
 15 65  1  6  0  0  0
 16 66  1  0  0  0  0
 17 18  1  0  0  0  0
 17 67  1  0  0  0  0
 17 68  1  0  0  0  0
 18 26  1  0  0  0  0
 18 19  1  0  0  0  0
 18 69  1  1  0  0  0
 19 20  1  0  0  0  0
 19 70  1  0  0  0  0
 19 71  1  0  0  0  0
 20 25  2  0  0  0  0
 20 21  1  0  0  0  0
 21 22  2  0  0  0  0
 21 72  1  0  0  0  0
 22 23  1  0  0  0  0
 22 73  1  0  0  0  0
 23 24  2  0  0  0  0
 23 74  1  0  0  0  0
 24 25  1  0  0  0  0
 24 75  1  0  0  0  0
 25 76  1  0  0  0  0
 26 28  1  0  0  0  0
 26 27  2  0  0  0  0
 28 29  1  0  0  0  0
 28 77  1  0  0  0  0
 29 38  1  0  0  0  0
 29 30  1  0  0  0  0
 29 78  1  6  0  0  0
 30 32  1  0  0  0  0
 30 31  1  0  0  0  0
 30 79  1  6  0  0  0
 31 80  1  0  0  0  0
 32 33  1  0  0  0  0
 32 81  1  0  0  0  0
 32 82  1  0  0  0  0
 33 38  2  0  0  0  0
 33 34  1  0  0  0  0
 34 35  2  0  0  0  0
 34 83  1  0  0  0  0
 35 36  1  0  0  0  0
 35 84  1  0  0  0  0
 36 37  2  0  0  0  0
 36 85  1  0  0  0  0
 37 38  1  0  0  0  0
 37 86  1  0  0  0  0
 39 40  1  0  0  0  0
 39 87  1  0  0  0  0
 39 88  1  0  0  0  0
 40 45  2  0  0  0  0
 40 41  1  0  0  0  0
 41 42  2  0  0  0  0
 41 89  1  0  0  0  0
 42 43  1  0  0  0  0
 43 44  2  0  0  0  0
 43 90  1  0  0  0  0
 44 45  1  0  0  0  0
 44 91  1  0  0  0  0
 45 92  1  0  0  0  0
M  CHG  1  11   1
M  END
$$$$
