MK1
 OpenBabel04041916503D

 93 97  0  0  1  0  0  0  0  0999 V2000
   23.6361   20.6223    2.9140 N   0  0  0  0  0  0  0  0  0  0  0  0
   23.5168   20.4813    4.3807 C   0  0  0  0  0  0  0  0  0  0  0  0
   24.4603   19.3714    4.8801 C   0  0  1  0  0  0  0  0  0  0  0  0
   24.3812   19.3411    6.4050 C   0  0  0  0  0  0  0  0  0  0  0  0
   23.3827   18.8864    6.9514 O   0  0  0  0  0  0  0  0  0  0  0  0
   25.5221   19.7573    7.0530 N   0  0  0  0  0  0  0  0  0  0  0  0
   25.6803   19.7738    8.5168 C   0  0  0  0  0  0  0  0  0  0  0  0
   27.0843   20.3129    8.8380 C   0  0  0  0  0  0  0  0  0  0  0  0
   25.5589   18.3526    9.0857 C   0  0  0  0  0  0  0  0  0  0  0  0
   24.6356   20.6902    9.1683 C   0  0  0  0  0  0  0  0  0  0  0  0
   23.9852   18.0376    4.2670 N   0  3  1  0  0  0  0  0  0  0  0  0
   23.9627   18.1155    2.7553 C   0  0  0  0  0  0  0  0  0  0  0  0
   23.2257   19.3628    2.2508 C   0  0  0  0  0  0  0  0  0  0  0  0
   24.7883   16.8482    4.7178 C   0  0  0  0  0  0  0  0  0  0  0  0
   23.8854   15.6257    4.9576 C   0  0  1  0  0  0  0  0  0  0  0  0
   24.6130   14.4531    4.6076 O   0  0  0  0  0  0  0  0  0  0  0  0
   23.4365   15.5567    6.4172 C   0  0  0  0  0  0  0  0  0  0  0  0
   22.5525   14.3384    6.7288 C   0  0  1  0  0  0  0  0  0  0  0  0
   22.3786   14.2477    8.2582 C   0  0  0  0  0  0  0  0  0  0  0  0
   21.4378   13.1800    8.7517 C   0  0  0  0  0  0  0  0  0  0  0  0
   21.6947   11.8217    8.5279 C   0  0  0  0  0  0  0  0  0  0  0  0
   20.8149   10.8523    9.0091 C   0  0  0  0  0  0  0  0  0  0  0  0
   19.6770   11.2294    9.7234 C   0  0  0  0  0  0  0  0  0  0  0  0
   19.4179   12.5758    9.9572 C   0  0  0  0  0  0  0  0  0  0  0  0
   20.2932   13.5478    9.4739 C   0  0  0  0  0  0  0  0  0  0  0  0
   21.2000   14.5258    6.0594 C   0  0  0  0  0  0  0  0  0  0  0  0
   20.6410   15.6169    6.0191 O   0  0  0  0  0  0  0  0  0  0  0  0
   20.6698   13.3800    5.5349 N   0  0  0  0  0  0  0  0  0  0  0  0
   19.2704   13.2751    5.2034 C   0  0  2  0  0  0  0  0  0  0  0  0
   18.6803   11.8818    5.5652 C   0  0  2  0  0  0  0  0  0  0  0  0
   19.6309   10.8319    5.3007 O   0  0  0  0  0  0  0  0  0  0  0  0
   17.4434   11.7445    4.6567 C   0  0  0  0  0  0  0  0  0  0  0  0
   17.9069   12.4717    3.4256 C   0  0  0  0  0  0  0  0  0  0  0  0
   17.3950   12.3949    2.1393 C   0  0  0  0  0  0  0  0  0  0  0  0
   17.9764   13.1898    1.1479 C   0  0  0  0  0  0  0  0  0  0  0  0
   19.0386   14.0570    1.4530 C   0  0  0  0  0  0  0  0  0  0  0  0
   19.5344   14.1428    2.7557 C   0  0  0  0  0  0  0  0  0  0  0  0
   18.9667   13.3365    3.7313 C   0  0  0  0  0  0  0  0  0  0  0  0
   22.8015   21.7107    2.3743 C   0  0  0  0  0  0  0  0  0  0  0  0
   23.0146   23.0588    3.0068 C   0  0  0  0  0  0  0  0  0  0  0  0
   24.1721   23.7966    2.8181 C   0  0  0  0  0  0  0  0  0  0  0  0
   24.3580   25.0315    3.3265 N   0  0  0  0  0  0  0  0  0  0  0  0
   23.3495   25.5617    4.0346 C   0  0  0  0  0  0  0  0  0  0  0  0
   22.1595   24.8998    4.3135 C   0  0  0  0  0  0  0  0  0  0  0  0
   22.0017   23.6213    3.7931 C   0  0  0  0  0  0  0  0  0  0  0  0
   22.4785   20.2472    4.6602 H   0  0  0  0  0  0  0  0  0  0  0  0
   23.7843   21.4093    4.8977 H   0  0  0  0  0  0  0  0  0  0  0  0
   25.4946   19.5194    4.5459 H   0  0  0  0  0  0  0  0  0  0  0  0
   26.2938   20.1440    6.5190 H   0  0  0  0  0  0  0  0  0  0  0  0
   27.2647   20.3443    9.9175 H   0  0  0  0  0  0  0  0  0  0  0  0
   27.2179   21.3269    8.4426 H   0  0  0  0  0  0  0  0  0  0  0  0
   27.8608   19.6853    8.3837 H   0  0  0  0  0  0  0  0  0  0  0  0
   25.7044   18.3510   10.1707 H   0  0  0  0  0  0  0  0  0  0  0  0
   26.3061   17.6874    8.6387 H   0  0  0  0  0  0  0  0  0  0  0  0
   24.5753   17.9154    8.8885 H   0  0  0  0  0  0  0  0  0  0  0  0
   24.7657   20.7221   10.2553 H   0  0  0  0  0  0  0  0  0  0  0  0
   23.6143   20.3479    8.9731 H   0  0  0  0  0  0  0  0  0  0  0  0
   24.7160   21.7131    8.7840 H   0  0  0  0  0  0  0  0  0  0  0  0
   23.4757   17.2062    2.3921 H   0  0  0  0  0  0  0  0  0  0  0  0
   25.0057   18.1379    2.4205 H   0  0  0  0  0  0  0  0  0  0  0  0
   23.4230   19.4469    1.1753 H   0  0  0  0  0  0  0  0  0  0  0  0
   22.1468   19.1998    2.3746 H   0  0  0  0  0  0  0  0  0  0  0  0
   25.3514   17.1063    5.6201 H   0  0  0  0  0  0  0  0  0  0  0  0
   25.5320   16.6371    3.9409 H   0  0  0  0  0  0  0  0  0  0  0  0
   23.0143   15.6613    4.2923 H   0  0  0  0  0  0  0  0  0  0  0  0
   25.4096   14.3845    5.1649 H   0  0  0  0  0  0  0  0  0  0  0  0
   22.8954   16.4748    6.6738 H   0  0  0  0  0  0  0  0  0  0  0  0
   24.3240   15.5174    7.0603 H   0  0  0  0  0  0  0  0  0  0  0  0
   23.0258   13.4227    6.3568 H   0  0  0  0  0  0  0  0  0  0  0  0
   22.0457   15.2216    8.6423 H   0  0  0  0  0  0  0  0  0  0  0  0
   23.3581   14.0686    8.7239 H   0  0  0  0  0  0  0  0  0  0  0  0
   22.5828   11.5051    7.9864 H   0  0  0  0  0  0  0  0  0  0  0  0
   21.0203    9.7983    8.8368 H   0  0  0  0  0  0  0  0  0  0  0  0
   18.9993   10.4721   10.1071 H   0  0  0  0  0  0  0  0  0  0  0  0
   18.5401   12.8729   10.5263 H   0  0  0  0  0  0  0  0  0  0  0  0
   20.0787   14.5952    9.6729 H   0  0  0  0  0  0  0  0  0  0  0  0
   21.2065   12.5219    5.4536 H   0  0  0  0  0  0  0  0  0  0  0  0
   18.7013   14.0560    5.7137 H   0  0  0  0  0  0  0  0  0  0  0  0
   18.4285   11.8146    6.6268 H   0  0  0  0  0  0  0  0  0  0  0  0
   19.1770    9.9873    5.4689 H   0  0  0  0  0  0  0  0  0  0  0  0
   16.5914   12.2806    5.0892 H   0  0  0  0  0  0  0  0  0  0  0  0
   17.1814   10.7032    4.4500 H   0  0  0  0  0  0  0  0  0  0  0  0
   16.5687   11.7342    1.8981 H   0  0  0  0  0  0  0  0  0  0  0  0
   17.6008   13.1396    0.1289 H   0  0  0  0  0  0  0  0  0  0  0  0
   19.4706   14.6679    0.6660 H   0  0  0  0  0  0  0  0  0  0  0  0
   20.3424   14.8227    2.9994 H   0  0  0  0  0  0  0  0  0  0  0  0
   21.7388   21.4417    2.4531 H   0  0  0  0  0  0  0  0  0  0  0  0
   23.0111   21.8174    1.3024 H   0  0  0  0  0  0  0  0  0  0  0  0
   24.9961   23.4109    2.2295 H   0  0  0  0  0  0  0  0  0  0  0  0
   23.5074   26.5813    4.3925 H   0  0  0  0  0  0  0  0  0  0  0  0
   21.3799   25.3719    4.8878 H   0  0  0  0  0  0  0  0  0  0  0  0
   21.0731   23.0811    3.9867 H   0  0  0  0  0  0  0  0  0  0  0  0
   23.0199   17.9314    4.6272 H   0  0  0  0  0  0  0  0  0  0  0  0
  1  2  1  0  0  0  0
  1 13  1  0  0  0  0
  1 39  1  0  0  0  0
  2  3  1  0  0  0  0
  2 46  1  0  0  0  0
  2 47  1  0  0  0  0
  3  4  1  0  0  0  0
  3 11  1  0  0  0  0
  3 48  1  6  0  0  0
  4  5  2  0  0  0  0
  4  6  1  0  0  0  0
  6  7  1  0  0  0  0
  6 49  1  0  0  0  0
  7  8  1  0  0  0  0
  7  9  1  0  0  0  0
  7 10  1  0  0  0  0
  8 50  1  0  0  0  0
  8 51  1  0  0  0  0
  8 52  1  0  0  0  0
  9 53  1  0  0  0  0
  9 54  1  0  0  0  0
  9 55  1  0  0  0  0
 10 56  1  0  0  0  0
 10 57  1  0  0  0  0
 10 58  1  0  0  0  0
 11 12  1  0  0  0  0
 11 14  1  0  0  0  0
 11 93  1  1  0  0  0
 12 13  1  0  0  0  0
 12 59  1  0  0  0  0
 12 60  1  0  0  0  0
 13 61  1  0  0  0  0
 13 62  1  0  0  0  0
 14 15  1  0  0  0  0
 14 63  1  0  0  0  0
 14 64  1  0  0  0  0
 15 16  1  0  0  0  0
 15 17  1  0  0  0  0
 15 65  1  6  0  0  0
 16 66  1  0  0  0  0
 17 18  1  0  0  0  0
 17 67  1  0  0  0  0
 17 68  1  0  0  0  0
 18 19  1  0  0  0  0
 18 26  1  0  0  0  0
 18 69  1  6  0  0  0
 19 20  1  0  0  0  0
 19 70  1  0  0  0  0
 19 71  1  0  0  0  0
 20 21  2  0  0  0  0
 20 25  1  0  0  0  0
 21 22  1  0  0  0  0
 21 72  1  0  0  0  0
 22 23  2  0  0  0  0
 22 73  1  0  0  0  0
 23 24  1  0  0  0  0
 23 74  1  0  0  0  0
 24 25  2  0  0  0  0
 24 75  1  0  0  0  0
 25 76  1  0  0  0  0
 26 27  2  0  0  0  0
 26 28  1  0  0  0  0
 28 29  1  0  0  0  0
 28 77  1  0  0  0  0
 29 30  1  0  0  0  0
 29 38  1  0  0  0  0
 29 78  1  1  0  0  0
 30 31  1  0  0  0  0
 30 32  1  0  0  0  0
 30 79  1  1  0  0  0
 31 80  1  0  0  0  0
 32 33  1  0  0  0  0
 32 81  1  0  0  0  0
 32 82  1  0  0  0  0
 33 34  2  0  0  0  0
 33 38  1  0  0  0  0
 34 35  1  0  0  0  0
 34 83  1  0  0  0  0
 35 36  2  0  0  0  0
 35 84  1  0  0  0  0
 36 37  1  0  0  0  0
 36 85  1  0  0  0  0
 37 38  2  0  0  0  0
 37 86  1  0  0  0  0
 39 40  1  0  0  0  0
 39 87  1  0  0  0  0
 39 88  1  0  0  0  0
 40 41  2  0  0  0  0
 40 45  1  0  0  0  0
 41 42  1  0  0  0  0
 41 89  1  0  0  0  0
 42 43  2  0  0  0  0
 43 44  1  0  0  0  0
 43 90  1  0  0  0  0
 44 45  2  0  0  0  0
 44 91  1  0  0  0  0
 45 92  1  0  0  0  0
M  CHG  1  11   1
M  END
$$$$
