MK1
 OpenBabel04041914593D

 93 97  0  0  1  0  0  0  0  0999 V2000
   11.9294    4.4260    9.8801 N   0  0  0  0  0  0  0  0  0  0  0  0
   12.7505    3.2083    9.9999 C   0  0  0  0  0  0  0  0  0  0  0  0
   13.3477    2.7317    8.6474 C   0  0  1  0  0  0  0  0  0  0  0  0
   14.1120    1.4027    8.9267 C   0  0  0  0  0  0  0  0  0  0  0  0
   13.4823    0.3757    9.1250 O   0  0  0  0  0  0  0  0  0  0  0  0
   15.4863    1.4864    8.8563 N   0  0  0  0  0  0  0  0  0  0  0  0
   16.4364    0.3677    9.1126 C   0  0  0  0  0  0  0  0  0  0  0  0
   17.8828    0.8921    9.0704 C   0  0  0  0  0  0  0  0  0  0  0  0
   16.4185   -0.6764    7.9766 C   0  0  0  0  0  0  0  0  0  0  0  0
   16.1437   -0.2902   10.4825 C   0  0  0  0  0  0  0  0  0  0  0  0
   12.2100    2.4985    7.6356 N   0  3  1  0  0  0  0  0  0  0  0  0
   11.2403    3.6653    7.5489 C   0  0  0  0  0  0  0  0  0  0  0  0
   10.7875    4.1556    8.9525 C   0  0  0  0  0  0  0  0  0  0  0  0
   12.6944    2.0263    6.2833 C   0  0  0  0  0  0  0  0  0  0  0  0
   11.6897    1.0386    5.6553 C   0  0  1  0  0  0  0  0  0  0  0  0
   11.8108    1.1136    4.2430 O   0  0  0  0  0  0  0  0  0  0  0  0
   11.9086   -0.3975    6.1075 C   0  0  0  0  0  0  0  0  0  0  0  0
   11.0187   -1.4307    5.3798 C   0  0  1  0  0  0  0  0  0  0  0  0
   11.6749   -2.7840    5.7046 C   0  0  0  0  0  0  0  0  0  0  0  0
   10.8173   -3.9668    5.4126 C   0  0  0  0  0  0  0  0  0  0  0  0
   10.4138   -4.2579    4.1074 C   0  0  0  0  0  0  0  0  0  0  0  0
    9.4569   -5.2437    3.8926 C   0  0  0  0  0  0  0  0  0  0  0  0
    8.9345   -5.9574    4.9717 C   0  0  0  0  0  0  0  0  0  0  0  0
    9.3752   -5.7019    6.2674 C   0  0  0  0  0  0  0  0  0  0  0  0
   10.3226   -4.7127    6.4875 C   0  0  0  0  0  0  0  0  0  0  0  0
    9.5721   -1.3442    5.8914 C   0  0  0  0  0  0  0  0  0  0  0  0
    9.3223   -0.8839    7.0057 O   0  0  0  0  0  0  0  0  0  0  0  0
    8.6034   -1.7977    5.0384 N   0  0  0  0  0  0  0  0  0  0  0  0
    7.2045   -1.9680    5.4174 C   0  0  2  0  0  0  0  0  0  0  0  0
    6.4339   -2.8505    4.3840 C   0  0  2  0  0  0  0  0  0  0  0  0
    7.1226   -2.8638    3.1139 O   0  0  0  0  0  0  0  0  0  0  0  0
    5.0034   -2.2811    4.3031 C   0  0  0  0  0  0  0  0  0  0  0  0
    5.1396   -0.8721    4.8007 C   0  0  0  0  0  0  0  0  0  0  0  0
    4.1934    0.1661    4.7161 C   0  0  0  0  0  0  0  0  0  0  0  0
    4.5067    1.4115    5.2391 C   0  0  0  0  0  0  0  0  0  0  0  0
    5.7400    1.6003    5.8957 C   0  0  0  0  0  0  0  0  0  0  0  0
    6.6755    0.5537    5.9896 C   0  0  0  0  0  0  0  0  0  0  0  0
    6.3813   -0.6871    5.4247 C   0  0  0  0  0  0  0  0  0  0  0  0
   11.4728    4.9734   11.1960 C   0  0  0  0  0  0  0  0  0  0  0  0
   12.5003    5.3269   12.2820 C   0  0  0  0  0  0  0  0  0  0  0  0
   13.5937    6.1686   12.1007 C   0  0  0  0  0  0  0  0  0  0  0  0
   14.4436    6.5806   13.0953 N   0  0  0  0  0  0  0  0  0  0  0  0
   14.1801    6.1588   14.3513 C   0  0  0  0  0  0  0  0  0  0  0  0
   13.1235    5.3340   14.6553 C   0  0  0  0  0  0  0  0  0  0  0  0
   12.2822    4.9169   13.6109 C   0  0  0  0  0  0  0  0  0  0  0  0
   12.1745    2.3848   10.4461 H   0  0  0  0  0  0  0  0  0  0  0  0
   13.6012    3.4240   10.6469 H   0  0  0  0  0  0  0  0  0  0  0  0
   14.0149    3.4845    8.2107 H   0  0  0  0  0  0  0  0  0  0  0  0
   15.9044    2.3655    8.5901 H   0  0  0  0  0  0  0  0  0  0  0  0
   18.5917    0.0757    9.2574 H   0  0  0  0  0  0  0  0  0  0  0  0
   18.0647    1.6907    9.7857 H   0  0  0  0  0  0  0  0  0  0  0  0
   18.1169    1.2823    8.0660 H   0  0  0  0  0  0  0  0  0  0  0  0
   17.1637   -1.4638    8.1812 H   0  0  0  0  0  0  0  0  0  0  0  0
   16.7547   -0.1948    7.0230 H   0  0  0  0  0  0  0  0  0  0  0  0
   15.4625   -1.1173    7.8133 H   0  0  0  0  0  0  0  0  0  0  0  0
   16.8448   -1.0999   10.7087 H   0  0  0  0  0  0  0  0  0  0  0  0
   15.1394   -0.7242   10.5340 H   0  0  0  0  0  0  0  0  0  0  0  0
   16.2096    0.4403   11.2987 H   0  0  0  0  0  0  0  0  0  0  0  0
   10.3754    3.3062    6.9752 H   0  0  0  0  0  0  0  0  0  0  0  0
   11.7253    4.4764    6.9952 H   0  0  0  0  0  0  0  0  0  0  0  0
   10.2159    5.0784    8.7904 H   0  0  0  0  0  0  0  0  0  0  0  0
   10.0827    3.4142    9.3605 H   0  0  0  0  0  0  0  0  0  0  0  0
   13.6785    1.5528    6.4022 H   0  0  0  0  0  0  0  0  0  0  0  0
   12.8416    2.9046    5.6398 H   0  0  0  0  0  0  0  0  0  0  0  0
   10.6733    1.3438    5.9223 H   0  0  0  0  0  0  0  0  0  0  0  0
   12.6599    0.7175    3.9736 H   0  0  0  0  0  0  0  0  0  0  0  0
   11.7435   -0.4791    7.1891 H   0  0  0  0  0  0  0  0  0  0  0  0
   12.9565   -0.6653    5.9215 H   0  0  0  0  0  0  0  0  0  0  0  0
   11.0236   -1.2693    4.2943 H   0  0  0  0  0  0  0  0  0  0  0  0
   11.9427   -2.7961    6.7709 H   0  0  0  0  0  0  0  0  0  0  0  0
   12.6230   -2.8741    5.1580 H   0  0  0  0  0  0  0  0  0  0  0  0
   10.7918   -3.6784    3.2679 H   0  0  0  0  0  0  0  0  0  0  0  0
    9.1020   -5.4399    2.8854 H   0  0  0  0  0  0  0  0  0  0  0  0
    8.1834   -6.7235    4.8028 H   0  0  0  0  0  0  0  0  0  0  0  0
    8.9761   -6.2588    7.1093 H   0  0  0  0  0  0  0  0  0  0  0  0
   10.6501   -4.4988    7.5032 H   0  0  0  0  0  0  0  0  0  0  0  0
    8.8525   -2.2249    4.1477 H   0  0  0  0  0  0  0  0  0  0  0  0
    7.1515   -2.4678    6.3914 H   0  0  0  0  0  0  0  0  0  0  0  0
    6.3935   -3.8935    4.7149 H   0  0  0  0  0  0  0  0  0  0  0  0
    6.6797   -3.5141    2.5401 H   0  0  0  0  0  0  0  0  0  0  0  0
    4.3609   -2.8522    4.9820 H   0  0  0  0  0  0  0  0  0  0  0  0
    4.6115   -2.3063    3.2844 H   0  0  0  0  0  0  0  0  0  0  0  0
    3.2204    0.0153    4.2357 H   0  0  0  0  0  0  0  0  0  0  0  0
    3.8108    2.2405    5.1745 H   0  0  0  0  0  0  0  0  0  0  0  0
    5.9812    2.5761    6.3010 H   0  0  0  0  0  0  0  0  0  0  0  0
    7.6064    0.7285    6.5103 H   0  0  0  0  0  0  0  0  0  0  0  0
   10.7399    4.2907   11.6450 H   0  0  0  0  0  0  0  0  0  0  0  0
   10.9361    5.9091   10.9824 H   0  0  0  0  0  0  0  0  0  0  0  0
   13.8287    6.5702   11.1196 H   0  0  0  0  0  0  0  0  0  0  0  0
   14.8474    6.5115   15.1483 H   0  0  0  0  0  0  0  0  0  0  0  0
   12.9383    5.0219   15.6826 H   0  0  0  0  0  0  0  0  0  0  0  0
   11.4365    4.2911   13.8641 H   0  0  0  0  0  0  0  0  0  0  0  0
   11.6875    1.7043    8.0399 H   0  0  0  0  0  0  0  0  0  0  0  0
  1 39  1  0  0  0  0
  1 13  1  0  0  0  0
  1  2  1  0  0  0  0
  2  3  1  0  0  0  0
  2 46  1  0  0  0  0
  2 47  1  0  0  0  0
  3 11  1  0  0  0  0
  3  4  1  0  0  0  0
  3 48  1  6  0  0  0
  4  6  1  0  0  0  0
  4  5  2  0  0  0  0
  6  7  1  0  0  0  0
  6 49  1  0  0  0  0
  7 10  1  0  0  0  0
  7  9  1  0  0  0  0
  7  8  1  0  0  0  0
  8 50  1  0  0  0  0
  8 51  1  0  0  0  0
  8 52  1  0  0  0  0
  9 53  1  0  0  0  0
  9 54  1  0  0  0  0
  9 55  1  0  0  0  0
 10 56  1  0  0  0  0
 10 57  1  0  0  0  0
 10 58  1  0  0  0  0
 11 14  1  0  0  0  0
 11 12  1  0  0  0  0
 11 93  1  1  0  0  0
 12 13  1  0  0  0  0
 12 59  1  0  0  0  0
 12 60  1  0  0  0  0
 13 61  1  0  0  0  0
 13 62  1  0  0  0  0
 14 15  1  0  0  0  0
 14 63  1  0  0  0  0
 14 64  1  0  0  0  0
 15 17  1  0  0  0  0
 15 16  1  0  0  0  0
 15 65  1  1  0  0  0
 16 66  1  0  0  0  0
 17 18  1  0  0  0  0
 17 67  1  0  0  0  0
 17 68  1  0  0  0  0
 18 26  1  0  0  0  0
 18 19  1  0  0  0  0
 18 69  1  6  0  0  0
 19 20  1  0  0  0  0
 19 70  1  0  0  0  0
 19 71  1  0  0  0  0
 20 25  2  0  0  0  0
 20 21  1  0  0  0  0
 21 22  2  0  0  0  0
 21 72  1  0  0  0  0
 22 23  1  0  0  0  0
 22 73  1  0  0  0  0
 23 24  2  0  0  0  0
 23 74  1  0  0  0  0
 24 25  1  0  0  0  0
 24 75  1  0  0  0  0
 25 76  1  0  0  0  0
 26 28  1  0  0  0  0
 26 27  2  0  0  0  0
 28 29  1  0  0  0  0
 28 77  1  0  0  0  0
 29 38  1  0  0  0  0
 29 30  1  0  0  0  0
 29 78  1  1  0  0  0
 30 32  1  0  0  0  0
 30 31  1  0  0  0  0
 30 79  1  1  0  0  0
 31 80  1  0  0  0  0
 32 33  1  0  0  0  0
 32 81  1  0  0  0  0
 32 82  1  0  0  0  0
 33 38  2  0  0  0  0
 33 34  1  0  0  0  0
 34 35  2  0  0  0  0
 34 83  1  0  0  0  0
 35 36  1  0  0  0  0
 35 84  1  0  0  0  0
 36 37  2  0  0  0  0
 36 85  1  0  0  0  0
 37 38  1  0  0  0  0
 37 86  1  0  0  0  0
 39 40  1  0  0  0  0
 39 87  1  0  0  0  0
 39 88  1  0  0  0  0
 40 45  2  0  0  0  0
 40 41  1  0  0  0  0
 41 42  2  0  0  0  0
 41 89  1  0  0  0  0
 42 43  1  0  0  0  0
 43 44  2  0  0  0  0
 43 90  1  0  0  0  0
 44 45  1  0  0  0  0
 44 91  1  0  0  0  0
 45 92  1  0  0  0  0
M  CHG  1  11   1
M  END
$$$$
