MMQ
 OpenBabel04041914303D

  9  8  0  0  0  0  0  0  0  0999 V2000
   73.5708   38.9877   43.5790 S   0  0  0  0  0  0  0  0  0  0  0  0
   74.8393   36.9494   45.4554 P   0  0  0  0  0  0  0  0  0  0  0  0
   76.0803   37.3438   46.2861 O   0  0  0  0  0  0  0  0  0  0  0  0
   74.8720   35.5067   44.9394 O   0  0  0  0  0  0  0  0  0  0  0  0
   73.5150   37.3706   46.0911 O   0  0  0  0  0  0  0  0  0  0  0  0
   75.0560   37.9644   43.8717 C   0  0  0  0  0  0  0  0  0  0  0  0
   73.9736   39.5905   42.4629 H   0  0  0  0  0  0  0  0  0  0  0  0
   75.9510   38.5891   43.9760 H   0  0  0  0  0  0  0  0  0  0  0  0
   75.2145   37.2702   43.0400 H   0  0  0  0  0  0  0  0  0  0  0  0
  1  6  1  0  0  0  0
  1  7  1  0  0  0  0
  2  3  2  0  0  0  0
  2  4  1  0  0  0  0
  2  5  1  0  0  0  0
  2  6  1  0  0  0  0
  6  8  1  0  0  0  0
  6  9  1  0  0  0  0
M  END
$$$$
