MNS
 OpenBabel04041916133D

 31 32  0  0  0  0  0  0  0  0999 V2000
   -5.2857    2.0231   15.7308 C   0  0  0  0  0  0  0  0  0  0  0  0
   -4.5681    1.5365   14.6279 C   0  0  0  0  0  0  0  0  0  0  0  0
   -4.0929    2.4101   13.6707 C   0  0  0  0  0  0  0  0  0  0  0  0
   -4.3413    3.7686   13.8132 C   0  0  0  0  0  0  0  0  0  0  0  0
   -5.0639    4.3208   14.9057 C   0  0  0  0  0  0  0  0  0  0  0  0
   -5.3252    5.7223   15.0653 C   0  0  0  0  0  0  0  0  0  0  0  0
   -6.0248    6.1887   16.1905 C   0  0  0  0  0  0  0  0  0  0  0  0
   -6.4904    5.3114   17.1507 C   0  0  0  0  0  0  0  0  0  0  0  0
   -6.2514    3.9531   16.9960 C   0  0  0  0  0  0  0  0  0  0  0  0
   -5.5416    3.4204   15.8910 C   0  0  0  0  0  0  0  0  0  0  0  0
   -4.9089    6.7277   14.1545 N   0  0  0  0  0  0  0  0  0  0  0  0
   -3.4601    6.9052   14.1545 C   0  0  0  0  0  0  0  0  0  0  0  0
   -5.5645    6.6292   12.8547 C   0  0  0  0  0  0  0  0  0  0  0  0
   -5.9068    0.9153   16.9710 S   0  0  0  0  0  0  0  0  0  0  0  0
   -7.3445    0.9522   16.9098 O   0  0  0  0  0  0  0  0  0  0  0  0
   -5.1807    1.1752   18.1953 O   0  0  0  0  0  0  0  0  0  0  0  0
   -5.4885   -0.6241   16.5181 N   0  0  0  0  0  0  0  0  0  0  0  0
   -4.3639    0.4846   14.4786 H   0  0  0  0  0  0  0  0  0  0  0  0
   -3.5383    2.0498   12.8077 H   0  0  0  0  0  0  0  0  0  0  0  0
   -3.9369    4.3995   13.0349 H   0  0  0  0  0  0  0  0  0  0  0  0
   -6.2079    7.2537   16.3127 H   0  0  0  0  0  0  0  0  0  0  0  0
   -7.0376    5.6682   18.0169 H   0  0  0  0  0  0  0  0  0  0  0  0
   -6.6432    3.3137   17.7842 H   0  0  0  0  0  0  0  0  0  0  0  0
   -3.1661    7.6376   13.3976 H   0  0  0  0  0  0  0  0  0  0  0  0
   -2.9148    5.9835   13.9413 H   0  0  0  0  0  0  0  0  0  0  0  0
   -3.1263    7.2724   15.1306 H   0  0  0  0  0  0  0  0  0  0  0  0
   -6.6528    6.5798   12.9724 H   0  0  0  0  0  0  0  0  0  0  0  0
   -5.2436    5.7606   12.2773 H   0  0  0  0  0  0  0  0  0  0  0  0
   -5.3344    7.5127   12.2521 H   0  0  0  0  0  0  0  0  0  0  0  0
   -5.7600   -1.3582   17.1667 H   0  0  0  0  0  0  0  0  0  0  0  0
   -4.9487   -0.8347   15.6970 H   0  0  0  0  0  0  0  0  0  0  0  0
  1 14  1  0  0  0  0
  1 10  2  0  0  0  0
  1  2  1  0  0  0  0
  2  3  2  0  0  0  0
  2 18  1  0  0  0  0
  3  4  1  0  0  0  0
  3 19  1  0  0  0  0
  4  5  2  0  0  0  0
  4 20  1  0  0  0  0
  5 10  1  0  0  0  0
  5  6  1  0  0  0  0
  6 11  1  0  0  0  0
  6  7  2  0  0  0  0
  7  8  1  0  0  0  0
  7 21  1  0  0  0  0
  8  9  2  0  0  0  0
  8 22  1  0  0  0  0
  9 10  1  0  0  0  0
  9 23  1  0  0  0  0
 11 13  1  0  0  0  0
 11 12  1  0  0  0  0
 12 24  1  0  0  0  0
 12 25  1  0  0  0  0
 12 26  1  0  0  0  0
 13 27  1  0  0  0  0
 13 28  1  0  0  0  0
 13 29  1  0  0  0  0
 14 17  1  0  0  0  0
 14 16  2  0  0  0  0
 14 15  2  0  0  0  0
 17 30  1  0  0  0  0
 17 31  1  0  0  0  0
M  END
$$$$
