MS3
 OpenBabel04041914253D

108111  0  0  1  0  0  0  0  0999 V2000
   16.2444   22.0247    9.0527 C   0  0  0  0  0  0  0  0  0  0  0  0
   17.1556   20.9453    8.9214 C   0  0  0  0  0  0  0  0  0  0  0  0
   16.8843   19.7424    9.5836 C   0  0  0  0  0  0  0  0  0  0  0  0
   15.7228   19.6107   10.3769 C   0  0  0  0  0  0  0  0  0  0  0  0
   14.8186   20.6827   10.5138 C   0  0  0  0  0  0  0  0  0  0  0  0
   15.0793   21.8919    9.8545 C   0  0  0  0  0  0  0  0  0  0  0  0
   10.3733   23.8131    2.2486 C   0  0  0  0  0  0  0  0  0  0  0  0
    9.3933   22.8629    2.6068 C   0  0  0  0  0  0  0  0  0  0  0  0
    8.0380   23.1714    2.4884 C   0  0  0  0  0  0  0  0  0  0  0  0
    7.6664   24.4351    1.9912 C   0  0  0  0  0  0  0  0  0  0  0  0
    8.6275   25.3909    1.6238 C   0  0  0  0  0  0  0  0  0  0  0  0
    9.9906   25.0845    1.7486 C   0  0  0  0  0  0  0  0  0  0  0  0
   11.8338   23.4664    2.4279 C   0  0  0  0  0  0  0  0  0  0  0  0
   12.1335   23.1677    3.7957 O   0  0  0  0  0  0  0  0  0  0  0  0
   12.2076   24.3224    4.6474 C   0  0  2  0  0  0  0  0  0  0  0  0
   13.3184   24.1373    5.6955 C   0  0  1  0  0  0  0  0  0  0  0  0
   14.6519   23.8136    5.0213 C   0  0  2  0  0  0  0  0  0  0  0  0
   15.6261   23.0777    6.0083 C   0  0  2  0  0  0  0  0  0  0  0  0
   15.4604   21.5415    5.7910 C   0  0  0  0  0  0  0  0  0  0  0  0
   14.4499   20.9278    6.0983 O   0  0  0  0  0  0  0  0  0  0  0  0
   16.5746   20.9381    5.2190 N   0  0  0  0  0  0  0  0  0  0  0  0
   16.7389   19.4847    4.9424 C   0  0  1  0  0  0  0  0  0  0  0  0
   16.5391   19.1452    3.4238 C   0  0  0  0  0  0  0  0  0  0  0  0
   16.7383   17.6588    3.0782 C   0  0  0  0  0  0  0  0  0  0  0  0
   15.1314   19.5014    2.9384 C   0  0  0  0  0  0  0  0  0  0  0  0
   18.1907   19.1322    5.4246 C   0  0  0  0  0  0  0  0  0  0  0  0
   19.1579   19.7700    4.9675 O   0  0  0  0  0  0  0  0  0  0  0  0
   18.3482   18.1599    6.4067 N   0  0  0  0  0  0  0  0  0  0  0  0
   19.7045   17.7668    6.9314 C   0  0  0  0  0  0  0  0  0  0  0  0
   15.4033   23.5152    7.3562 O   0  0  0  0  0  0  0  0  0  0  0  0
   16.4769   23.3106    8.2900 C   0  0  0  0  0  0  0  0  0  0  0  0
   15.2152   25.0504    4.5114 O   0  0  0  0  0  0  0  0  0  0  0  0
   13.4581   25.3160    6.5245 O   0  0  0  0  0  0  0  0  0  0  0  0
   10.9420   24.4598    5.5109 C   0  0  0  0  0  0  0  0  0  0  0  0
   10.5193   23.5447    6.1639 O   0  0  0  0  0  0  0  0  0  0  0  0
   10.3811   25.7399    5.5332 N   0  0  0  0  0  0  0  0  0  0  0  0
    9.1781   26.0643    6.3215 C   0  0  1  0  0  0  0  0  0  0  0  0
    9.4927   26.8675    7.6293 C   0  0  0  0  0  0  0  0  0  0  0  0
    8.2410   27.2077    8.4661 C   0  0  0  0  0  0  0  0  0  0  0  0
   10.4838   26.1406    8.5389 C   0  0  0  0  0  0  0  0  0  0  0  0
    8.2793   26.8921    5.4056 C   0  0  0  0  0  0  0  0  0  0  0  0
    8.6886   27.9858    4.9165 O   0  0  0  0  0  0  0  0  0  0  0  0
    7.0507   26.3913    5.1179 N   0  0  0  0  0  0  0  0  0  0  0  0
    6.0481   27.0355    4.2614 C   0  0  0  0  0  0  0  0  0  0  0  0
    4.9454   26.0742    3.7814 C   0  0  0  0  0  0  0  0  0  0  0  0
    4.5140   26.0908    2.4416 C   0  0  0  0  0  0  0  0  0  0  0  0
    3.5142   25.1761    2.0371 C   0  0  0  0  0  0  0  0  0  0  0  0
    2.9413   24.2865    2.9643 C   0  0  0  0  0  0  0  0  0  0  0  0
    3.4167   24.3499    4.2837 C   0  0  0  0  0  0  0  0  0  0  0  0
    4.3911   25.2111    4.6983 N   0  0  0  0  0  0  0  0  0  0  0  0
   19.9852   18.0454    8.4484 C   0  0  0  0  0  0  0  0  0  0  0  0
   20.4816   19.3056    8.8499 C   0  0  0  0  0  0  0  0  0  0  0  0
   20.6882   19.5526   10.2259 C   0  0  0  0  0  0  0  0  0  0  0  0
   20.4198   18.5497   11.1707 C   0  0  0  0  0  0  0  0  0  0  0  0
   19.9510   17.3190   10.6957 C   0  0  0  0  0  0  0  0  0  0  0  0
   19.7338   17.0547    9.3771 N   0  0  0  0  0  0  0  0  0  0  0  0
   18.0573   21.0556    8.2960 H   0  0  0  0  0  0  0  0  0  0  0  0
   17.5707   18.8939    9.4957 H   0  0  0  0  0  0  0  0  0  0  0  0
   15.5227   18.6663   10.8899 H   0  0  0  0  0  0  0  0  0  0  0  0
   13.9172   20.5709   11.1302 H   0  0  0  0  0  0  0  0  0  0  0  0
   14.3717   22.7371    9.9395 H   0  0  0  0  0  0  0  0  0  0  0  0
    9.7030   21.8787    3.0045 H   0  0  0  0  0  0  0  0  0  0  0  0
    7.2838   22.4330    2.7779 H   0  0  0  0  0  0  0  0  0  0  0  0
    6.6072   24.6634    1.8928 H   0  0  0  0  0  0  0  0  0  0  0  0
    8.3197   26.3791    1.2403 H   0  0  0  0  0  0  0  0  0  0  0  0
   10.7545   25.8213    1.4686 H   0  0  0  0  0  0  0  0  0  0  0  0
   12.4840   24.2822    2.0802 H   0  0  0  0  0  0  0  0  0  0  0  0
   12.0718   22.5823    1.8099 H   0  0  0  0  0  0  0  0  0  0  0  0
   12.3761   25.2340    4.0692 H   0  0  0  0  0  0  0  0  0  0  0  0
   13.0617   23.2773    6.3197 H   0  0  0  0  0  0  0  0  0  0  0  0
   14.4921   23.1772    4.1394 H   0  0  0  0  0  0  0  0  0  0  0  0
   16.6353   23.3718    5.7055 H   0  0  0  0  0  0  0  0  0  0  0  0
   17.3746   21.5213    4.9987 H   0  0  0  0  0  0  0  0  0  0  0  0
   16.0208   18.9252    5.5456 H   0  0  0  0  0  0  0  0  0  0  0  0
   17.2593   19.7257    2.8301 H   0  0  0  0  0  0  0  0  0  0  0  0
   16.5644   17.4778    2.0040 H   0  0  0  0  0  0  0  0  0  0  0  0
   16.0312   17.0276    3.6315 H   0  0  0  0  0  0  0  0  0  0  0  0
   17.7545   17.3274    3.3070 H   0  0  0  0  0  0  0  0  0  0  0  0
   14.9028   20.5509    3.1341 H   0  0  0  0  0  0  0  0  0  0  0  0
   14.3831   18.8772    3.4419 H   0  0  0  0  0  0  0  0  0  0  0  0
   15.0394   19.3305    1.8564 H   0  0  0  0  0  0  0  0  0  0  0  0
   17.4910   17.7143    6.7376 H   0  0  0  0  0  0  0  0  0  0  0  0
   20.4898   18.2864    6.3472 H   0  0  0  0  0  0  0  0  0  0  0  0
   19.8720   16.6890    6.7475 H   0  0  0  0  0  0  0  0  0  0  0  0
   17.4560   23.3118    7.7854 H   0  0  0  0  0  0  0  0  0  0  0  0
   16.4920   24.1515    9.0121 H   0  0  0  0  0  0  0  0  0  0  0  0
   15.3337   25.6493    5.2745 H   0  0  0  0  0  0  0  0  0  0  0  0
   14.0925   25.1087    7.2411 H   0  0  0  0  0  0  0  0  0  0  0  0
   10.7959   26.4607    4.9640 H   0  0  0  0  0  0  0  0  0  0  0  0
    8.6561   25.1322    6.5683 H   0  0  0  0  0  0  0  0  0  0  0  0
    9.9557   27.8225    7.3466 H   0  0  0  0  0  0  0  0  0  0  0  0
    8.5117   27.7563    9.3834 H   0  0  0  0  0  0  0  0  0  0  0  0
    7.7056   26.3008    8.7739 H   0  0  0  0  0  0  0  0  0  0  0  0
    7.5467   27.8418    7.9037 H   0  0  0  0  0  0  0  0  0  0  0  0
   11.3944   25.8874    7.9927 H   0  0  0  0  0  0  0  0  0  0  0  0
   10.0471   25.2179    8.9366 H   0  0  0  0  0  0  0  0  0  0  0  0
   10.7732   26.7752    9.3879 H   0  0  0  0  0  0  0  0  0  0  0  0
    6.7818   25.4942    5.5287 H   0  0  0  0  0  0  0  0  0  0  0  0
    6.5804   27.4774    3.4044 H   0  0  0  0  0  0  0  0  0  0  0  0
    5.6012   27.8622    4.8371 H   0  0  0  0  0  0  0  0  0  0  0  0
    4.9805   26.7805    1.7215 H   0  0  0  0  0  0  0  0  0  0  0  0
    3.1818   25.1660    1.0009 H   0  0  0  0  0  0  0  0  0  0  0  0
    2.1562   23.5713    2.6864 H   0  0  0  0  0  0  0  0  0  0  0  0
    3.0076   23.6827    5.0589 H   0  0  0  0  0  0  0  0  0  0  0  0
   20.6821   20.0736    8.1112 H   0  0  0  0  0  0  0  0  0  0  0  0
   21.0537   20.5235   10.5601 H   0  0  0  0  0  0  0  0  0  0  0  0
   20.5729   18.7234   12.2370 H   0  0  0  0  0  0  0  0  0  0  0  0
   19.7303   16.5134   11.4140 H   0  0  0  0  0  0  0  0  0  0  0  0
  1  2  2  0  0  0  0
  1  6  1  0  0  0  0
  1 31  1  0  0  0  0
  2  3  1  0  0  0  0
  2 57  1  0  0  0  0
  3  4  2  0  0  0  0
  3 58  1  0  0  0  0
  4  5  1  0  0  0  0
  4 59  1  0  0  0  0
  5  6  2  0  0  0  0
  5 60  1  0  0  0  0
  6 61  1  0  0  0  0
  7  8  2  0  0  0  0
  7 12  1  0  0  0  0
  7 13  1  0  0  0  0
  8  9  1  0  0  0  0
  8 62  1  0  0  0  0
  9 10  2  0  0  0  0
  9 63  1  0  0  0  0
 10 11  1  0  0  0  0
 10 64  1  0  0  0  0
 11 12  2  0  0  0  0
 11 65  1  0  0  0  0
 12 66  1  0  0  0  0
 13 14  1  0  0  0  0
 13 67  1  0  0  0  0
 13 68  1  0  0  0  0
 14 15  1  0  0  0  0
 15 16  1  0  0  0  0
 15 34  1  0  0  0  0
 15 69  1  6  0  0  0
 16 17  1  0  0  0  0
 16 33  1  0  0  0  0
 16 70  1  1  0  0  0
 17 18  1  0  0  0  0
 17 32  1  0  0  0  0
 17 71  1  6  0  0  0
 18 19  1  0  0  0  0
 18 30  1  0  0  0  0
 18 72  1  6  0  0  0
 19 20  2  0  0  0  0
 19 21  1  0  0  0  0
 21 22  1  0  0  0  0
 21 73  1  0  0  0  0
 22 23  1  0  0  0  0
 22 26  1  0  0  0  0
 22 74  1  1  0  0  0
 23 24  1  0  0  0  0
 23 25  1  0  0  0  0
 23 75  1  0  0  0  0
 24 76  1  0  0  0  0
 24 77  1  0  0  0  0
 24 78  1  0  0  0  0
 25 79  1  0  0  0  0
 25 80  1  0  0  0  0
 25 81  1  0  0  0  0
 26 27  2  0  0  0  0
 26 28  1  0  0  0  0
 28 29  1  0  0  0  0
 28 82  1  0  0  0  0
 29 51  1  0  0  0  0
 29 83  1  0  0  0  0
 29 84  1  0  0  0  0
 30 31  1  0  0  0  0
 31 85  1  0  0  0  0
 31 86  1  0  0  0  0
 32 87  1  0  0  0  0
 33 88  1  0  0  0  0
 34 35  2  0  0  0  0
 34 36  1  0  0  0  0
 36 37  1  0  0  0  0
 36 89  1  0  0  0  0
 37 38  1  0  0  0  0
 37 41  1  0  0  0  0
 37 90  1  1  0  0  0
 38 39  1  0  0  0  0
 38 40  1  0  0  0  0
 38 91  1  0  0  0  0
 39 92  1  0  0  0  0
 39 93  1  0  0  0  0
 39 94  1  0  0  0  0
 40 95  1  0  0  0  0
 40 96  1  0  0  0  0
 40 97  1  0  0  0  0
 41 42  2  0  0  0  0
 41 43  1  0  0  0  0
 43 44  1  0  0  0  0
 43 98  1  0  0  0  0
 44 45  1  0  0  0  0
 44 99  1  0  0  0  0
 44100  1  0  0  0  0
 45 46  2  0  0  0  0
 45 50  1  0  0  0  0
 46 47  1  0  0  0  0
 46101  1  0  0  0  0
 47 48  2  0  0  0  0
 47102  1  0  0  0  0
 48 49  1  0  0  0  0
 48103  1  0  0  0  0
 49 50  2  0  0  0  0
 49104  1  0  0  0  0
 51 52  2  0  0  0  0
 51 56  1  0  0  0  0
 52 53  1  0  0  0  0
 52105  1  0  0  0  0
 53 54  2  0  0  0  0
 53106  1  0  0  0  0
 54 55  1  0  0  0  0
 54107  1  0  0  0  0
 55 56  2  0  0  0  0
 55108  1  0  0  0  0
M  END
$$$$
