MSC
 OpenBabel04041914163D

 83 87  0  0  1  0  0  0  0  0999 V2000
   13.7713   23.1475    4.9908 C   0  0  1  0  0  0  0  0  0  0  0  0
   14.3579   22.9504    3.6808 O   0  0  0  0  0  0  0  0  0  0  0  0
   14.8107   22.7920    6.0768 C   0  0  1  0  0  0  0  0  0  0  0  0
   14.2898   23.0618    7.3905 O   0  0  0  0  0  0  0  0  0  0  0  0
   15.2880   23.4822    8.3233 C   0  0  0  0  0  0  0  0  0  0  0  0
   16.1980   22.3628    8.7933 C   0  0  0  0  0  0  0  0  0  0  0  0
   15.6843   21.2556    9.4971 C   0  0  0  0  0  0  0  0  0  0  0  0
   16.5250   20.1960    9.8620 C   0  0  0  0  0  0  0  0  0  0  0  0
   17.8909   20.2403    9.5502 C   0  0  0  0  0  0  0  0  0  0  0  0
   18.4214   21.3494    8.8851 C   0  0  0  0  0  0  0  0  0  0  0  0
   17.5896   22.4021    8.5155 C   0  0  0  0  0  0  0  0  0  0  0  0
   15.0194   21.2823    5.9287 C   0  0  0  0  0  0  0  0  0  0  0  0
   14.0993   20.4767    6.1157 O   0  0  0  0  0  0  0  0  0  0  0  0
   16.2895   20.8721    5.5760 N   0  0  0  0  0  0  0  0  0  0  0  0
   16.5705   19.4623    5.3554 C   0  0  1  0  0  0  0  0  0  0  0  0
   16.5519   19.0083    3.9063 C   0  0  0  0  0  0  0  0  0  0  0  0
   15.7033   19.4027    2.8701 C   0  0  0  0  0  0  0  0  0  0  0  0
   15.8654   18.8185    1.6036 C   0  0  0  0  0  0  0  0  0  0  0  0
   16.8564   17.8446    1.3810 C   0  0  0  0  0  0  0  0  0  0  0  0
   17.7044   17.4395    2.4240 C   0  0  0  0  0  0  0  0  0  0  0  0
   17.5498   18.0363    3.6830 C   0  0  0  0  0  0  0  0  0  0  0  0
   18.3468   17.7827    4.9304 C   0  0  0  0  0  0  0  0  0  0  0  0
   18.0127   19.0425    5.7626 C   0  0  1  0  0  0  0  0  0  0  0  0
   18.9654   20.0796    5.4544 O   0  0  0  0  0  0  0  0  0  0  0  0
   13.2707   24.6088    5.0914 C   0  0  1  0  0  0  0  0  0  0  0  0
   14.3081   25.4732    4.5207 O   0  0  0  0  0  0  0  0  0  0  0  0
   11.9266   24.8542    4.3527 C   0  0  1  0  0  0  0  0  0  0  0  0
   11.8234   23.9888    3.2096 O   0  0  0  0  0  0  0  0  0  0  0  0
   11.0685   24.5607    2.1424 C   0  0  0  0  0  0  0  0  0  0  0  0
    9.5668   24.4573    2.3039 C   0  0  0  0  0  0  0  0  0  0  0  0
    8.7524   25.5736    2.0319 C   0  0  0  0  0  0  0  0  0  0  0  0
    7.3661   25.5166    2.2287 C   0  0  0  0  0  0  0  0  0  0  0  0
    6.7801   24.3288    2.6768 C   0  0  0  0  0  0  0  0  0  0  0  0
    7.5691   23.1999    2.9113 C   0  0  0  0  0  0  0  0  0  0  0  0
    8.9579   23.2592    2.7148 C   0  0  0  0  0  0  0  0  0  0  0  0
   10.7946   24.5917    5.3589 C   0  0  0  0  0  0  0  0  0  0  0  0
   10.6949   23.5209    5.9516 O   0  0  0  0  0  0  0  0  0  0  0  0
    9.9319   25.6465    5.5909 N   0  0  0  0  0  0  0  0  0  0  0  0
    8.8197   25.4612    6.5035 C   0  0  0  0  0  0  0  0  0  0  0  0
    8.4521   26.6979    7.2737 C   0  0  0  0  0  0  0  0  0  0  0  0
    7.2068   27.3313    7.0229 C   0  0  0  0  0  0  0  0  0  0  0  0
    6.8227   28.4550    7.7467 C   0  0  0  0  0  0  0  0  0  0  0  0
    7.6670   28.9635    8.7432 C   0  0  0  0  0  0  0  0  0  0  0  0
    8.9049   28.3395    9.0101 C   0  0  0  0  0  0  0  0  0  0  0  0
    9.2948   27.2007    8.2862 C   0  0  0  0  0  0  0  0  0  0  0  0
   10.8306   26.4400    8.6555 Cl  0  0  0  0  0  0  0  0  0  0  0  0
    6.4020   26.8798    6.0774 F   0  0  0  0  0  0  0  0  0  0  0  0
   12.9076   22.4828    5.1011 H   0  0  0  0  0  0  0  0  0  0  0  0
   13.6422   23.1303    3.0393 H   0  0  0  0  0  0  0  0  0  0  0  0
   15.7403   23.3464    5.9017 H   0  0  0  0  0  0  0  0  0  0  0  0
   14.7713   23.9256    9.1841 H   0  0  0  0  0  0  0  0  0  0  0  0
   15.8668   24.2905    7.8624 H   0  0  0  0  0  0  0  0  0  0  0  0
   14.6241   21.2076    9.7413 H   0  0  0  0  0  0  0  0  0  0  0  0
   16.1162   19.3270   10.3810 H   0  0  0  0  0  0  0  0  0  0  0  0
   18.5365   19.4072    9.8229 H   0  0  0  0  0  0  0  0  0  0  0  0
   19.4858   21.3897    8.6544 H   0  0  0  0  0  0  0  0  0  0  0  0
   18.0046   23.2669    7.9984 H   0  0  0  0  0  0  0  0  0  0  0  0
   16.9904   21.5631    5.3513 H   0  0  0  0  0  0  0  0  0  0  0  0
   15.8626   18.8643    5.9428 H   0  0  0  0  0  0  0  0  0  0  0  0
   14.9383   20.1535    3.0362 H   0  0  0  0  0  0  0  0  0  0  0  0
   15.2169   19.1217    0.7799 H   0  0  0  0  0  0  0  0  0  0  0  0
   16.9683   17.4054    0.3901 H   0  0  0  0  0  0  0  0  0  0  0  0
   18.4738   16.6972    2.2453 H   0  0  0  0  0  0  0  0  0  0  0  0
   19.4191   17.7010    4.7257 H   0  0  0  0  0  0  0  0  0  0  0  0
   17.9975   16.8744    5.4367 H   0  0  0  0  0  0  0  0  0  0  0  0
   18.0973   18.8379    6.8362 H   0  0  0  0  0  0  0  0  0  0  0  0
   18.7097   20.8523    5.9830 H   0  0  0  0  0  0  0  0  0  0  0  0
   13.1883   24.8992    6.1336 H   0  0  0  0  0  0  0  0  0  0  0  0
   14.4921   25.1427    3.6183 H   0  0  0  0  0  0  0  0  0  0  0  0
   11.9302   25.9068    4.0317 H   0  0  0  0  0  0  0  0  0  0  0  0
   11.3779   24.0443    1.2283 H   0  0  0  0  0  0  0  0  0  0  0  0
   11.3738   25.6066    2.0358 H   0  0  0  0  0  0  0  0  0  0  0  0
    9.1939   26.5049    1.6739 H   0  0  0  0  0  0  0  0  0  0  0  0
    6.7502   26.3860    2.0423 H   0  0  0  0  0  0  0  0  0  0  0  0
    5.7045   24.2834    2.8425 H   0  0  0  0  0  0  0  0  0  0  0  0
    7.1112   22.2809    3.2620 H   0  0  0  0  0  0  0  0  0  0  0  0
    9.5616   22.3746    2.9125 H   0  0  0  0  0  0  0  0  0  0  0  0
    9.9781   26.4830    5.0194 H   0  0  0  0  0  0  0  0  0  0  0  0
    9.0733   24.6756    7.2302 H   0  0  0  0  0  0  0  0  0  0  0  0
    7.9664   25.1019    5.9257 H   0  0  0  0  0  0  0  0  0  0  0  0
    5.8543   28.9309    7.5556 H   0  0  0  0  0  0  0  0  0  0  0  0
    7.3688   29.8538    9.3008 H   0  0  0  0  0  0  0  0  0  0  0  0
    9.5513   28.7581    9.7807 H   0  0  0  0  0  0  0  0  0  0  0  0
  1  2  1  0  0  0  0
  1  3  1  0  0  0  0
  1 25  1  0  0  0  0
  1 48  1  1  0  0  0
  2 49  1  0  0  0  0
  3  4  1  0  0  0  0
  3 12  1  0  0  0  0
  3 50  1  6  0  0  0
  4  5  1  0  0  0  0
  5  6  1  0  0  0  0
  5 51  1  0  0  0  0
  5 52  1  0  0  0  0
  6  7  2  0  0  0  0
  6 11  1  0  0  0  0
  7  8  1  0  0  0  0
  7 53  1  0  0  0  0
  8  9  2  0  0  0  0
  8 54  1  0  0  0  0
  9 10  1  0  0  0  0
  9 55  1  0  0  0  0
 10 11  2  0  0  0  0
 10 56  1  0  0  0  0
 11 57  1  0  0  0  0
 12 13  2  0  0  0  0
 12 14  1  0  0  0  0
 14 15  1  0  0  0  0
 14 58  1  0  0  0  0
 15 16  1  0  0  0  0
 15 23  1  0  0  0  0
 15 59  1  1  0  0  0
 16 17  2  0  0  0  0
 16 21  1  0  0  0  0
 17 18  1  0  0  0  0
 17 60  1  0  0  0  0
 18 19  2  0  0  0  0
 18 61  1  0  0  0  0
 19 20  1  0  0  0  0
 19 62  1  0  0  0  0
 20 21  2  0  0  0  0
 20 63  1  0  0  0  0
 21 22  1  0  0  0  0
 22 23  1  0  0  0  0
 22 64  1  0  0  0  0
 22 65  1  0  0  0  0
 23 24  1  0  0  0  0
 23 66  1  1  0  0  0
 24 67  1  0  0  0  0
 25 26  1  0  0  0  0
 25 27  1  0  0  0  0
 25 68  1  1  0  0  0
 26 69  1  0  0  0  0
 27 28  1  0  0  0  0
 27 36  1  0  0  0  0
 27 70  1  6  0  0  0
 28 29  1  0  0  0  0
 29 30  1  0  0  0  0
 29 71  1  0  0  0  0
 29 72  1  0  0  0  0
 30 31  2  0  0  0  0
 30 35  1  0  0  0  0
 31 32  1  0  0  0  0
 31 73  1  0  0  0  0
 32 33  2  0  0  0  0
 32 74  1  0  0  0  0
 33 34  1  0  0  0  0
 33 75  1  0  0  0  0
 34 35  2  0  0  0  0
 34 76  1  0  0  0  0
 35 77  1  0  0  0  0
 36 37  2  0  0  0  0
 36 38  1  0  0  0  0
 38 39  1  0  0  0  0
 38 78  1  0  0  0  0
 39 40  1  0  0  0  0
 39 79  1  0  0  0  0
 39 80  1  0  0  0  0
 40 41  2  0  0  0  0
 40 45  1  0  0  0  0
 41 42  1  0  0  0  0
 41 47  1  0  0  0  0
 42 43  2  0  0  0  0
 42 81  1  0  0  0  0
 43 44  1  0  0  0  0
 43 82  1  0  0  0  0
 44 45  2  0  0  0  0
 44 83  1  0  0  0  0
 45 46  1  0  0  0  0
M  END
$$$$
