MTH
 OpenBabel04041915503D

 36 38  0  0  1  0  0  0  0  0999 V2000
   56.1242   68.6000   22.5795 C   0  0  0  0  0  0  0  0  0  0  0  0
   55.5109   70.2156   23.1287 S   0  0  0  0  0  0  0  0  0  0  0  0
   56.1659   71.2523   21.7789 C   0  0  0  0  0  0  0  0  0  0  0  0
   57.6300   71.6651   21.9566 C   0  0  1  0  0  0  0  0  0  0  0  0
   58.1277   72.1603   20.6798 O   0  0  0  0  0  0  0  0  0  0  0  0
   57.6107   74.0532   22.0581 C   0  0  2  0  0  0  0  0  0  0  0  0
   58.4328   75.1537   22.4788 O   0  0  0  0  0  0  0  0  0  0  0  0
   57.8570   72.8123   22.9341 C   0  0  2  0  0  0  0  0  0  0  0  0
   59.2213   72.7347   23.3914 O   0  0  0  0  0  0  0  0  0  0  0  0
   57.8301   73.5849   20.5855 C   0  0  2  0  0  0  0  0  0  0  0  0
   56.7761   73.7534   19.5502 N   0  3  0  0  0  0  0  0  0  0  0  0
   56.9630   73.4724   18.2027 C   0  0  0  0  0  0  0  0  0  0  0  0
   55.7805   73.6582   17.5145 C   0  0  0  0  0  0  0  0  0  0  0  0
   54.8212   74.0905   18.4552 C   0  0  0  0  0  0  0  0  0  0  0  0
   53.4625   74.4426   18.3800 C   0  0  0  0  0  0  0  0  0  0  0  0
   52.7363   74.3896   17.2194 N   0  0  0  0  0  0  0  0  0  0  0  0
   52.8529   74.8194   19.5152 N   0  0  0  0  0  0  0  0  0  0  0  0
   53.5908   74.8477   20.6379 C   0  0  0  0  0  0  0  0  0  0  0  0
   54.8736   74.5143   20.8233 N   0  0  0  0  0  0  0  0  0  0  0  0
   55.4599   74.1458   19.6960 C   0  0  0  0  0  0  0  0  0  0  0  0
   55.8092   67.8315   23.2914 H   0  0  0  0  0  0  0  0  0  0  0  0
   57.2153   68.5975   22.5307 H   0  0  0  0  0  0  0  0  0  0  0  0
   55.7109   68.3475   21.5991 H   0  0  0  0  0  0  0  0  0  0  0  0
   55.5292   72.1364   21.7182 H   0  0  0  0  0  0  0  0  0  0  0  0
   56.0497   70.7217   20.8284 H   0  0  0  0  0  0  0  0  0  0  0  0
   58.2313   70.7908   22.2363 H   0  0  0  0  0  0  0  0  0  0  0  0
   56.5909   74.3810   22.2178 H   0  0  0  0  0  0  0  0  0  0  0  0
   59.3687   74.8957   22.3988 H   0  0  0  0  0  0  0  0  0  0  0  0
   57.2070   72.7687   23.8148 H   0  0  0  0  0  0  0  0  0  0  0  0
   59.3819   73.4660   24.0134 H   0  0  0  0  0  0  0  0  0  0  0  0
   58.7205   74.0847   20.1737 H   0  0  0  0  0  0  0  0  0  0  0  0
   57.9166   73.1316   17.8200 H   0  0  0  0  0  0  0  0  0  0  0  0
   55.6086   73.4802   16.4625 H   0  0  0  0  0  0  0  0  0  0  0  0
   51.7668   74.6674   17.2546 H   0  0  0  0  0  0  0  0  0  0  0  0
   53.1650   74.1126   16.3522 H   0  0  0  0  0  0  0  0  0  0  0  0
   53.0448   75.1720   21.5275 H   0  0  0  0  0  0  0  0  0  0  0  0
  1  2  1  0  0  0  0
  1 21  1  0  0  0  0
  1 22  1  0  0  0  0
  1 23  1  0  0  0  0
  2  3  1  0  0  0  0
  3  4  1  0  0  0  0
  3 24  1  0  0  0  0
  3 25  1  0  0  0  0
  4  5  1  0  0  0  0
  4  8  1  0  0  0  0
  4 26  1  1  0  0  0
  5 10  1  0  0  0  0
  6  7  1  0  0  0  0
  6  8  1  0  0  0  0
  6 10  1  0  0  0  0
  6 27  1  1  0  0  0
  7 28  1  0  0  0  0
  8  9  1  0  0  0  0
  8 29  1  1  0  0  0
  9 30  1  0  0  0  0
 10 11  1  0  0  0  0
 10 31  1  6  0  0  0
 11 12  1  0  0  0  0
 11 20  2  0  0  0  0
 12 13  2  0  0  0  0
 12 32  1  0  0  0  0
 13 14  1  0  0  0  0
 13 33  1  0  0  0  0
 14 15  2  0  0  0  0
 14 20  1  0  0  0  0
 15 16  1  0  0  0  0
 15 17  1  0  0  0  0
 16 34  1  0  0  0  0
 16 35  1  0  0  0  0
 17 18  1  0  0  0  0
 18 19  2  0  0  0  0
 18 36  1  0  0  0  0
 19 20  1  0  0  0  0
M  CHG  1  11   1
M  END
$$$$
