MTI
 OpenBabel04041916313D

 37 39  0  0  1  0  0  0  0  0999 V2000
   10.0643    1.4965   95.8152 C   0  0  0  0  0  0  0  0  0  0  0  0
    9.2125    0.7491   94.4064 S   0  0  0  0  0  0  0  0  0  0  0  0
    8.4772    2.2510   93.6985 C   0  0  0  0  0  0  0  0  0  0  0  0
    8.2279    2.0631   92.1994 C   0  0  1  0  0  0  0  0  0  0  0  0
    7.2227    3.0800   91.7352 N   0  3  0  0  0  0  0  0  0  0  0  0
    9.3885    3.7878   90.8828 C   0  0  2  0  0  0  0  0  0  0  0  0
    9.6772    3.9049   89.4812 O   0  0  0  0  0  0  0  0  0  0  0  0
    9.4568    2.3101   91.3154 C   0  0  2  0  0  0  0  0  0  0  0  0
    9.3779    1.4285   90.1908 O   0  0  0  0  0  0  0  0  0  0  0  0
    7.9510    4.2808   91.1794 C   0  0  2  0  0  0  0  0  0  0  0  0
    7.7371    5.4525   92.1167 C   0  0  2  0  0  0  0  0  0  0  0  0
    6.4823    5.9388   92.4833 C   0  0  0  0  0  0  0  0  0  0  0  0
    6.6308    7.0151   93.3370 N   0  3  0  0  0  0  0  0  0  0  0  0
    7.9648    7.2279   93.5307 C   0  0  2  0  0  0  0  0  0  0  0  0
    8.5933    8.2282   94.3300 C   0  0  0  0  0  0  0  0  0  0  0  0
    8.0124    9.0618   95.0058 O   0  0  0  0  0  0  0  0  0  0  0  0
    9.9667    8.1456   94.2556 N   0  3  0  0  0  0  0  0  0  0  0  0
   10.6034    7.1819   93.5134 C   0  0  0  0  0  0  0  0  0  0  0  0
   10.0472    6.2388   92.8022 N   0  0  0  0  0  0  0  0  0  0  0  0
    8.6478    6.2961   92.8036 C   0  0  1  0  0  0  0  0  0  0  0  0
   10.5634    0.7149   96.3921 H   0  0  0  0  0  0  0  0  0  0  0  0
    9.3558    2.0194   96.4626 H   0  0  0  0  0  0  0  0  0  0  0  0
   10.8186    2.1980   95.4502 H   0  0  0  0  0  0  0  0  0  0  0  0
    9.1302    3.1102   93.8732 H   0  0  0  0  0  0  0  0  0  0  0  0
    7.5307    2.4237   94.2216 H   0  0  0  0  0  0  0  0  0  0  0  0
    7.7632    1.0908   91.9906 H   0  0  0  0  0  0  0  0  0  0  0  0
    6.6408    2.6708   90.9935 H   0  0  0  0  0  0  0  0  0  0  0  0
   10.1432    4.3606   91.4148 H   0  0  0  0  0  0  0  0  0  0  0  0
   10.6228    3.7185   89.3353 H   0  0  0  0  0  0  0  0  0  0  0  0
   10.3943    2.0966   91.8407 H   0  0  0  0  0  0  0  0  0  0  0  0
   10.1727    1.5547   89.6380 H   0  0  0  0  0  0  0  0  0  0  0  0
    7.4346    4.5123   90.2373 H   0  0  0  0  0  0  0  0  0  0  0  0
    5.4811    5.6307   92.1971 H   0  0  0  0  0  0  0  0  0  0  0  0
    5.8832    7.5601   93.7522 H   0  0  0  0  0  0  0  0  0  0  0  0
   10.4889    8.8270   94.7914 H   0  0  0  0  0  0  0  0  0  0  0  0
   11.7032    7.2479   93.5728 H   0  0  0  0  0  0  0  0  0  0  0  0
    6.5895    3.3661   92.4908 H   0  0  0  0  0  0  0  0  0  0  0  0
  1  2  1  0  0  0  0
  1 21  1  0  0  0  0
  1 22  1  0  0  0  0
  1 23  1  0  0  0  0
  2  3  1  0  0  0  0
  3  4  1  0  0  0  0
  3 24  1  0  0  0  0
  3 25  1  0  0  0  0
  4  5  1  0  0  0  0
  4  8  1  0  0  0  0
  4 26  1  6  0  0  0
  5 10  1  0  0  0  0
  5 27  1  0  0  0  0
  5 37  1  0  0  0  0
  6  7  1  0  0  0  0
  6  8  1  0  0  0  0
  6 10  1  0  0  0  0
  6 28  1  1  0  0  0
  7 29  1  0  0  0  0
  8  9  1  0  0  0  0
  8 30  1  1  0  0  0
  9 31  1  0  0  0  0
 10 11  1  0  0  0  0
 10 32  1  6  0  0  0
 11 12  1  6  0  0  0
 11 20  1  0  0  0  0
 12 13  1  0  0  0  0
 12 33  1  0  0  0  0
 13 34  1  0  0  0  0
 14 13  1  6  0  0  0
 14 15  1  0  0  0  0
 14 20  1  0  0  0  0
 15 16  2  0  0  0  0
 15 17  1  0  0  0  0
 17 18  1  0  0  0  0
 17 35  1  0  0  0  0
 18 19  1  0  0  0  0
 18 36  1  0  0  0  0
 20 19  1  1  0  0  0
M  CHG  3   5   1  13   1  17   1
M  END
$$$$
