MTM
 OpenBabel04041915153D

 38 40  0  0  1  0  0  0  0  0999 V2000
   58.5233   13.5048   31.9008 C   0  0  0  0  0  0  0  0  0  0  0  0
   58.6070   14.5426   30.4118 S   0  0  0  0  0  0  0  0  0  0  0  0
   59.2279   16.1043   31.1449 C   0  0  0  0  0  0  0  0  0  0  0  0
   60.7268   16.0329   31.4500 C   0  0  1  0  0  0  0  0  0  0  0  0
   61.4685   15.4943   30.2627 N   0  3  0  0  0  0  0  0  0  0  0  0
   61.9795   17.8470   30.3924 C   0  0  2  0  0  0  0  0  0  0  0  0
   63.3077   18.3582   30.5622 O   0  0  0  0  0  0  0  0  0  0  0  0
   61.3640   17.3881   31.7421 C   0  0  2  0  0  0  0  0  0  0  0  0
   62.3764   17.2143   32.7447 O   0  0  0  0  0  0  0  0  0  0  0  0
   61.9735   16.6366   29.4218 C   0  0  2  0  0  0  0  0  0  0  0  0
   61.1679   16.6910   28.1388 C   0  0  0  0  0  0  0  0  0  0  0  0
   60.9174   15.6156   27.2904 C   0  0  0  0  0  0  0  0  0  0  0  0
   60.1419   16.0438   26.2342 N   0  3  0  0  0  0  0  0  0  0  0  0
   59.8845   17.3814   26.3720 C   0  0  0  0  0  0  0  0  0  0  0  0
   59.1586   18.2820   25.6055 C   0  0  0  0  0  0  0  0  0  0  0  0
   58.4908   17.9438   24.4587 N   0  0  0  0  0  0  0  0  0  0  0  0
   59.1153   19.5561   26.0350 N   0  0  0  0  0  0  0  0  0  0  0  0
   59.7590   19.8698   27.1609 C   0  0  0  0  0  0  0  0  0  0  0  0
   60.4557   19.0721   27.9757 N   0  0  0  0  0  0  0  0  0  0  0  0
   60.5171   17.8035   27.5373 C   0  0  0  0  0  0  0  0  0  0  0  0
   58.1362   12.5174   31.6336 H   0  0  0  0  0  0  0  0  0  0  0  0
   57.8583   13.9512   32.6441 H   0  0  0  0  0  0  0  0  0  0  0  0
   59.5217   13.3777   32.3257 H   0  0  0  0  0  0  0  0  0  0  0  0
   58.6719   16.3309   32.0584 H   0  0  0  0  0  0  0  0  0  0  0  0
   59.0325   16.9025   30.4217 H   0  0  0  0  0  0  0  0  0  0  0  0
   60.9153   15.3290   32.2686 H   0  0  0  0  0  0  0  0  0  0  0  0
   62.2403   14.8805   30.5388 H   0  0  0  0  0  0  0  0  0  0  0  0
   61.3823   18.6697   30.0103 H   0  0  0  0  0  0  0  0  0  0  0  0
   63.8475   17.7162   31.0610 H   0  0  0  0  0  0  0  0  0  0  0  0
   60.6291   18.1166   32.1128 H   0  0  0  0  0  0  0  0  0  0  0  0
   61.9535   17.0792   33.6182 H   0  0  0  0  0  0  0  0  0  0  0  0
   63.0071   16.3713   29.1558 H   0  0  0  0  0  0  0  0  0  0  0  0
   61.2191   14.5771   27.3469 H   0  0  0  0  0  0  0  0  0  0  0  0
   59.7964   15.4719   25.4673 H   0  0  0  0  0  0  0  0  0  0  0  0
   58.0371   18.6976   23.9578 H   0  0  0  0  0  0  0  0  0  0  0  0
   58.5131   17.0244   24.0529 H   0  0  0  0  0  0  0  0  0  0  0  0
   59.7017   20.9199   27.4852 H   0  0  0  0  0  0  0  0  0  0  0  0
   60.8062   14.9293   29.7072 H   0  0  0  0  0  0  0  0  0  0  0  0
  1  2  1  0  0  0  0
  1 21  1  0  0  0  0
  1 22  1  0  0  0  0
  1 23  1  0  0  0  0
  2  3  1  0  0  0  0
  3  4  1  0  0  0  0
  3 24  1  0  0  0  0
  3 25  1  0  0  0  0
  4  5  1  0  0  0  0
  4  8  1  0  0  0  0
  4 26  1  1  0  0  0
  5 10  1  0  0  0  0
  5 27  1  0  0  0  0
  5 38  1  0  0  0  0
  6  7  1  0  0  0  0
  6  8  1  0  0  0  0
  6 10  1  0  0  0  0
  6 28  1  6  0  0  0
  7 29  1  0  0  0  0
  8  9  1  0  0  0  0
  8 30  1  1  0  0  0
  9 31  1  0  0  0  0
 10 11  1  0  0  0  0
 10 32  1  6  0  0  0
 11 12  1  0  0  0  0
 11 20  2  0  0  0  0
 12 13  2  0  0  0  0
 12 33  1  0  0  0  0
 13 14  1  0  0  0  0
 13 34  1  0  0  0  0
 14 15  2  0  0  0  0
 14 20  1  0  0  0  0
 15 16  1  0  0  0  0
 15 17  1  0  0  0  0
 16 35  1  0  0  0  0
 16 36  1  0  0  0  0
 17 18  1  0  0  0  0
 18 19  2  0  0  0  0
 18 37  1  0  0  0  0
 19 20  1  0  0  0  0
M  CHG  2   5   1  13   1
M  END
$$$$
