N4B
 OpenBabel04041913513D

 24 24  0  0  0  0  0  0  0  0999 V2000
   27.5612    7.0428    3.9729 C   0  0  0  0  0  0  0  0  0  0  0  0
   27.0242    7.0609    5.2681 C   0  0  0  0  0  0  0  0  0  0  0  0
   26.1969    6.0199    5.6917 C   0  0  0  0  0  0  0  0  0  0  0  0
   25.9015    4.9665    4.8281 C   0  0  0  0  0  0  0  0  0  0  0  0
   26.4501    4.9378    3.5423 C   0  0  0  0  0  0  0  0  0  0  0  0
   27.2786    5.9705    3.1219 C   0  0  0  0  0  0  0  0  0  0  0  0
   28.3510    8.2238    3.4611 C   0  0  0  0  0  0  0  0  0  0  0  0
   27.4258    9.3896    3.0916 C   0  0  0  0  0  0  0  0  0  0  0  0
   26.6318    9.1524    1.8034 C   0  0  0  0  0  0  0  0  0  0  0  0
   27.5255    9.0953    0.5747 C   0  0  0  0  0  0  0  0  0  0  0  0
   27.2224    7.8932    5.9376 H   0  0  0  0  0  0  0  0  0  0  0  0
   25.7672    6.0411    6.6883 H   0  0  0  0  0  0  0  0  0  0  0  0
   25.2352    4.1707    5.1466 H   0  0  0  0  0  0  0  0  0  0  0  0
   26.2110    4.1239    2.8659 H   0  0  0  0  0  0  0  0  0  0  0  0
   27.6724    5.9594    2.1085 H   0  0  0  0  0  0  0  0  0  0  0  0
   28.9635    7.9144    2.6062 H   0  0  0  0  0  0  0  0  0  0  0  0
   29.0698    8.5394    4.2307 H   0  0  0  0  0  0  0  0  0  0  0  0
   28.0221   10.3011    2.9835 H   0  0  0  0  0  0  0  0  0  0  0  0
   26.7168    9.5741    3.9092 H   0  0  0  0  0  0  0  0  0  0  0  0
   25.9100    9.9658    1.6793 H   0  0  0  0  0  0  0  0  0  0  0  0
   26.0479    8.2288    1.8730 H   0  0  0  0  0  0  0  0  0  0  0  0
   26.9246    8.9400   -0.3243 H   0  0  0  0  0  0  0  0  0  0  0  0
   28.2448    8.2726    0.6303 H   0  0  0  0  0  0  0  0  0  0  0  0
   28.0853   10.0297    0.4619 H   0  0  0  0  0  0  0  0  0  0  0  0
  1  2  2  0  0  0  0
  1  6  1  0  0  0  0
  1  7  1  0  0  0  0
  2  3  1  0  0  0  0
  2 11  1  0  0  0  0
  3  4  2  0  0  0  0
  3 12  1  0  0  0  0
  4  5  1  0  0  0  0
  4 13  1  0  0  0  0
  5  6  2  0  0  0  0
  5 14  1  0  0  0  0
  6 15  1  0  0  0  0
  7  8  1  0  0  0  0
  7 16  1  0  0  0  0
  7 17  1  0  0  0  0
  8  9  1  0  0  0  0
  8 18  1  0  0  0  0
  8 19  1  0  0  0  0
  9 10  1  0  0  0  0
  9 20  1  0  0  0  0
  9 21  1  0  0  0  0
 10 22  1  0  0  0  0
 10 23  1  0  0  0  0
 10 24  1  0  0  0  0
M  END
$$$$
