NCT
 OpenBabel04041917123D

 27 28  0  0  1  0  0  0  0  0999 V2000
   81.7587   69.9946   -7.9730 N   0  0  0  0  0  0  0  0  0  0  0  0
   82.9150   69.9289   -8.6811 C   0  0  0  0  0  0  0  0  0  0  0  0
   83.0534   69.2680   -9.8928 C   0  0  0  0  0  0  0  0  0  0  0  0
   81.9061   68.6378  -10.3788 C   0  0  0  0  0  0  0  0  0  0  0  0
   80.7096   68.6645   -9.6671 C   0  0  0  0  0  0  0  0  0  0  0  0
   80.6850   69.3566   -8.4697 C   0  0  0  0  0  0  0  0  0  0  0  0
   84.7933   70.4517  -11.3454 N   0  3  1  0  0  0  0  0  0  0  0  0
   84.3598   69.1710  -10.6454 C   0  0  1  0  0  0  0  0  0  0  0  0
   85.5531   68.7674   -9.7820 C   0  0  0  0  0  0  0  0  0  0  0  0
   86.7682   69.4149  -10.4042 C   0  0  0  0  0  0  0  0  0  0  0  0
   86.2822   70.6244  -11.1683 C   0  0  0  0  0  0  0  0  0  0  0  0
   84.4154   70.4867  -12.7989 C   0  0  0  0  0  0  0  0  0  0  0  0
   83.7392   70.4354   -8.1820 H   0  0  0  0  0  0  0  0  0  0  0  0
   81.9255   68.0752  -11.3193 H   0  0  0  0  0  0  0  0  0  0  0  0
   79.8230   68.1498  -10.0229 H   0  0  0  0  0  0  0  0  0  0  0  0
   79.7775   69.4098   -7.8695 H   0  0  0  0  0  0  0  0  0  0  0  0
   84.2602   68.4166  -11.4373 H   0  0  0  0  0  0  0  0  0  0  0  0
   85.6567   67.6749   -9.7635 H   0  0  0  0  0  0  0  0  0  0  0  0
   85.4592   69.0809   -8.7353 H   0  0  0  0  0  0  0  0  0  0  0  0
   87.2661   68.7143  -11.0816 H   0  0  0  0  0  0  0  0  0  0  0  0
   87.5023   69.6990   -9.6421 H   0  0  0  0  0  0  0  0  0  0  0  0
   86.4399   71.5653  -10.6338 H   0  0  0  0  0  0  0  0  0  0  0  0
   86.7633   70.6805  -12.1494 H   0  0  0  0  0  0  0  0  0  0  0  0
   83.3333   70.3959  -12.8836 H   0  0  0  0  0  0  0  0  0  0  0  0
   84.9226   69.6565  -13.3049 H   0  0  0  0  0  0  0  0  0  0  0  0
   84.7560   71.4413  -13.2093 H   0  0  0  0  0  0  0  0  0  0  0  0
   84.3186   71.2309  -10.8836 H   0  0  0  0  0  0  0  0  0  0  0  0
  1  2  2  0  0  0  0
  1  6  1  0  0  0  0
  2  3  1  0  0  0  0
  2 13  1  0  0  0  0
  3  4  2  0  0  0  0
  3  8  1  0  0  0  0
  4  5  1  0  0  0  0
  4 14  1  0  0  0  0
  5  6  2  0  0  0  0
  5 15  1  0  0  0  0
  6 16  1  0  0  0  0
  7  8  1  0  0  0  0
  7 11  1  0  0  0  0
  7 12  1  0  0  0  0
  7 27  1  1  0  0  0
  8  9  1  0  0  0  0
  8 17  1  6  0  0  0
  9 10  1  0  0  0  0
  9 18  1  0  0  0  0
  9 19  1  0  0  0  0
 10 11  1  0  0  0  0
 10 20  1  0  0  0  0
 10 21  1  0  0  0  0
 11 22  1  0  0  0  0
 11 23  1  0  0  0  0
 12 24  1  0  0  0  0
 12 25  1  0  0  0  0
 12 26  1  0  0  0  0
M  CHG  1   7   1
M  END
$$$$
