NGT
 OpenBabel04041915573D

 27 28  0  0  1  0  0  0  0  0999 V2000
    5.1354   22.0523   34.8173 C   0  0  1  0  0  0  0  0  0  0  0  0
    5.1897   23.2942   35.7290 C   0  0  1  0  0  0  0  0  0  0  0  0
    6.6197   23.6416   36.1999 C   0  0  2  0  0  0  0  0  0  0  0  0
    7.4455   22.3946   36.5290 C   0  0  1  0  0  0  0  0  0  0  0  0
    7.3923   21.4492   35.3341 C   0  0  1  0  0  0  0  0  0  0  0  0
    8.2400   20.1935   35.5507 C   0  0  0  0  0  0  0  0  0  0  0  0
    4.7708   24.2463   33.6816 C   0  0  0  0  0  0  0  0  0  0  0  0
    4.3451   25.2277   32.6502 C   0  0  0  0  0  0  0  0  0  0  0  0
    4.6459   24.4651   34.9681 N   0  0  0  0  0  0  0  0  0  0  0  0
    5.3944   22.7253   33.1541 S   0  0  0  0  0  0  0  0  0  0  0  0
    6.5914   24.4900   37.3608 O   0  0  0  0  0  0  0  0  0  0  0  0
    8.7912   22.7930   36.7996 O   0  0  0  0  0  0  0  0  0  0  0  0
    6.0465   21.0224   35.1274 O   0  0  0  0  0  0  0  0  0  0  0  0
    8.0032   19.2662   34.4933 O   0  0  0  0  0  0  0  0  0  0  0  0
    4.1281   21.6140   34.8708 H   0  0  0  0  0  0  0  0  0  0  0  0
    4.5329   23.1522   36.6032 H   0  0  0  0  0  0  0  0  0  0  0  0
    7.1524   24.1965   35.4139 H   0  0  0  0  0  0  0  0  0  0  0  0
    7.0283   21.9106   37.4208 H   0  0  0  0  0  0  0  0  0  0  0  0
    7.7915   21.9678   34.4528 H   0  0  0  0  0  0  0  0  0  0  0  0
    7.9759   19.7192   36.5023 H   0  0  0  0  0  0  0  0  0  0  0  0
    9.3043   20.4488   35.5514 H   0  0  0  0  0  0  0  0  0  0  0  0
    3.9619   26.1405   33.1220 H   0  0  0  0  0  0  0  0  0  0  0  0
    3.5517   24.7864   32.0388 H   0  0  0  0  0  0  0  0  0  0  0  0
    5.1931   25.4867   32.0099 H   0  0  0  0  0  0  0  0  0  0  0  0
    6.0733   25.2794   37.1272 H   0  0  0  0  0  0  0  0  0  0  0  0
    9.3027   22.0010   37.0291 H   0  0  0  0  0  0  0  0  0  0  0  0
    8.5371   18.4718   34.6529 H   0  0  0  0  0  0  0  0  0  0  0  0
  1  2  1  0  0  0  0
  1 10  1  0  0  0  0
  1 13  1  0  0  0  0
  1 15  1  1  0  0  0
  2  3  1  0  0  0  0
  2  9  1  0  0  0  0
  2 16  1  1  0  0  0
  3  4  1  0  0  0  0
  3 11  1  0  0  0  0
  3 17  1  6  0  0  0
  4  5  1  0  0  0  0
  4 12  1  0  0  0  0
  4 18  1  1  0  0  0
  5  6  1  0  0  0  0
  5 13  1  0  0  0  0
  5 19  1  6  0  0  0
  6 14  1  0  0  0  0
  6 20  1  0  0  0  0
  6 21  1  0  0  0  0
  7  8  1  0  0  0  0
  7  9  2  0  0  0  0
  7 10  1  0  0  0  0
  8 22  1  0  0  0  0
  8 23  1  0  0  0  0
  8 24  1  0  0  0  0
 11 25  1  0  0  0  0
 12 26  1  0  0  0  0
 14 27  1  0  0  0  0
M  END
$$$$
