NGT
 OpenBabel04041914583D

 27 28  0  0  1  0  0  0  0  0999 V2000
   -5.7990   65.5464    9.9336 C   0  0  1  0  0  0  0  0  0  0  0  0
   -6.5461   66.4595    8.9675 C   0  0  1  0  0  0  0  0  0  0  0  0
   -5.5928   67.2503    8.0369 C   0  0  2  0  0  0  0  0  0  0  0  0
   -4.3687   67.7989    8.7861 C   0  0  1  0  0  0  0  0  0  0  0  0
   -3.6859   66.6491    9.5384 C   0  0  1  0  0  0  0  0  0  0  0  0
   -2.4508   67.1215   10.3271 C   0  0  0  0  0  0  0  0  0  0  0  0
   -7.0321   64.4236    8.0700 C   0  0  0  0  0  0  0  0  0  0  0  0
   -7.6853   63.3437    7.2616 C   0  0  0  0  0  0  0  0  0  0  0  0
   -7.4667   65.6458    8.1115 N   0  0  0  0  0  0  0  0  0  0  0  0
   -5.6224   64.0055    9.0053 S   0  0  0  0  0  0  0  0  0  0  0  0
   -6.3122   68.3313    7.4247 O   0  0  0  0  0  0  0  0  0  0  0  0
   -3.4767   68.3742    7.8237 O   0  0  0  0  0  0  0  0  0  0  0  0
   -4.5985   66.0650   10.4768 O   0  0  0  0  0  0  0  0  0  0  0  0
   -1.7481   65.9936   10.8506 O   0  0  0  0  0  0  0  0  0  0  0  0
   -6.4537   65.3250   10.7808 H   0  0  0  0  0  0  0  0  0  0  0  0
   -7.1558   67.1747    9.5279 H   0  0  0  0  0  0  0  0  0  0  0  0
   -5.2448   66.6062    7.2185 H   0  0  0  0  0  0  0  0  0  0  0  0
   -4.6901   68.5894    9.4783 H   0  0  0  0  0  0  0  0  0  0  0  0
   -3.3449   65.8854    8.8274 H   0  0  0  0  0  0  0  0  0  0  0  0
   -2.7494   67.7582   11.1663 H   0  0  0  0  0  0  0  0  0  0  0  0
   -1.7504   67.6670    9.6911 H   0  0  0  0  0  0  0  0  0  0  0  0
   -8.5653   63.7381    6.7496 H   0  0  0  0  0  0  0  0  0  0  0  0
   -7.9988   62.5222    7.9155 H   0  0  0  0  0  0  0  0  0  0  0  0
   -6.9859   62.9583    6.5162 H   0  0  0  0  0  0  0  0  0  0  0  0
   -7.0602   67.9310    6.9471 H   0  0  0  0  0  0  0  0  0  0  0  0
   -2.7378   68.7990    8.2865 H   0  0  0  0  0  0  0  0  0  0  0  0
   -0.9926   66.3270   11.3620 H   0  0  0  0  0  0  0  0  0  0  0  0
  1  2  1  0  0  0  0
  1 10  1  0  0  0  0
  1 13  1  0  0  0  0
  1 15  1  1  0  0  0
  2  3  1  0  0  0  0
  2  9  1  0  0  0  0
  2 16  1  1  0  0  0
  3  4  1  0  0  0  0
  3 11  1  0  0  0  0
  3 17  1  6  0  0  0
  4  5  1  0  0  0  0
  4 12  1  0  0  0  0
  4 18  1  1  0  0  0
  5  6  1  0  0  0  0
  5 13  1  0  0  0  0
  5 19  1  6  0  0  0
  6 14  1  0  0  0  0
  6 20  1  0  0  0  0
  6 21  1  0  0  0  0
  7  8  1  0  0  0  0
  7  9  2  0  0  0  0
  7 10  1  0  0  0  0
  8 22  1  0  0  0  0
  8 23  1  0  0  0  0
  8 24  1  0  0  0  0
 11 25  1  0  0  0  0
 12 26  1  0  0  0  0
 14 27  1  0  0  0  0
M  END
$$$$
