NMB
 OpenBabel04041913573D

 75 79  0  0  1  0  0  0  0  0999 V2000
   11.2839   23.5204    5.9355 N   0  0  0  0  0  0  0  0  0  0  0  0
   11.7401   21.9480    6.4045 S   0  0  0  0  0  0  0  0  0  0  0  0
   13.3671   21.9922    6.1566 N   0  0  0  0  0  0  0  0  0  0  0  0
   13.7399   21.8690    4.7184 C   0  0  1  0  0  0  0  0  0  0  0  0
   13.8707   23.2144    4.0097 C   0  0  1  0  0  0  0  0  0  0  0  0
   12.9749   24.3162    4.5279 C   0  0  2  0  0  0  0  0  0  0  0  0
   11.4897   24.0225    4.5539 C   0  0  1  0  0  0  0  0  0  0  0  0
   10.0117   23.9135    6.4772 C   0  0  0  0  0  0  0  0  0  0  0  0
    9.7990   25.1593    7.2646 C   0  0  0  0  0  0  0  0  0  0  0  0
    8.5385   25.7914    7.1491 C   0  0  0  0  0  0  0  0  0  0  0  0
    8.2415   26.9016    7.9395 C   0  0  0  0  0  0  0  0  0  0  0  0
    9.1806   27.3727    8.8608 C   0  0  0  0  0  0  0  0  0  0  0  0
   10.4227   26.7335    8.9990 C   0  0  0  0  0  0  0  0  0  0  0  0
   10.7167   25.6213    8.2050 C   0  0  0  0  0  0  0  0  0  0  0  0
   11.1663   20.9533    5.6120 O   0  0  0  0  0  0  0  0  0  0  0  0
   14.7495   20.0340    3.4927 O   0  0  0  0  0  0  0  0  0  0  0  0
   15.7733   19.1602    3.2295 C   0  0  0  0  0  0  0  0  0  0  0  0
   16.6909   18.7510    4.1920 C   0  0  0  0  0  0  0  0  0  0  0  0
   17.7090   17.8472    3.8716 C   0  0  0  0  0  0  0  0  0  0  0  0
   17.8000   17.3389    2.5711 C   0  0  0  0  0  0  0  0  0  0  0  0
   16.8799   17.7298    1.5968 C   0  0  0  0  0  0  0  0  0  0  0  0
   15.8607   18.6373    1.9271 C   0  0  0  0  0  0  0  0  0  0  0  0
   14.2081   22.6943    7.1474 C   0  0  0  0  0  0  0  0  0  0  0  0
   15.1845   21.8380    7.9173 C   0  0  0  0  0  0  0  0  0  0  0  0
   14.7597   20.9651    8.9358 C   0  0  0  0  0  0  0  0  0  0  0  0
   15.6869   20.1802    9.6403 C   0  0  0  0  0  0  0  0  0  0  0  0
   17.0525   20.2674    9.3388 C   0  0  0  0  0  0  0  0  0  0  0  0
   17.4849   21.1458    8.3387 C   0  0  0  0  0  0  0  0  0  0  0  0
   16.5600   21.9290    7.6378 C   0  0  0  0  0  0  0  0  0  0  0  0
   15.2077   23.6972    4.1780 O   0  0  0  0  0  0  0  0  0  0  0  0
   13.2599   25.5190    3.8195 O   0  0  0  0  0  0  0  0  0  0  0  0
   10.8170   23.1575    3.4721 C   0  0  0  0  0  0  0  0  0  0  0  0
    9.3730   23.1693    3.6585 O   0  0  0  0  0  0  0  0  0  0  0  0
    8.6517   24.1071    2.9738 C   0  0  0  0  0  0  0  0  0  0  0  0
    9.1829   25.3007    2.4986 C   0  0  0  0  0  0  0  0  0  0  0  0
    8.4059   26.2019    1.7665 C   0  0  0  0  0  0  0  0  0  0  0  0
    7.0649   25.9069    1.5198 C   0  0  0  0  0  0  0  0  0  0  0  0
    6.5133   24.7222    2.0104 C   0  0  0  0  0  0  0  0  0  0  0  0
    7.3005   23.8226    2.7468 C   0  0  0  0  0  0  0  0  0  0  0  0
   11.5518   21.9211    7.8232 O   0  0  0  0  0  0  0  0  0  0  0  0
   14.9857   20.9991    4.5403 C   0  0  0  0  0  0  0  0  0  0  0  0
   12.9251   21.3431    4.2163 H   0  0  0  0  0  0  0  0  0  0  0  0
   13.6730   23.0776    2.9361 H   0  0  0  0  0  0  0  0  0  0  0  0
   13.2555   24.5238    5.5727 H   0  0  0  0  0  0  0  0  0  0  0  0
   10.9867   24.9951    4.4835 H   0  0  0  0  0  0  0  0  0  0  0  0
    9.6757   23.0928    7.0773 H   0  0  0  0  0  0  0  0  0  0  0  0
    9.3570   24.0404    5.6033 H   0  0  0  0  0  0  0  0  0  0  0  0
    7.7989   25.4320    6.4423 H   0  0  0  0  0  0  0  0  0  0  0  0
    7.2777   27.3957    7.8291 H   0  0  0  0  0  0  0  0  0  0  0  0
    8.9513   28.2377    9.4772 H   0  0  0  0  0  0  0  0  0  0  0  0
   11.1514   27.1008    9.7150 H   0  0  0  0  0  0  0  0  0  0  0  0
   11.6722   25.1124    8.3095 H   0  0  0  0  0  0  0  0  0  0  0  0
   16.6223   19.1260    5.2057 H   0  0  0  0  0  0  0  0  0  0  0  0
   18.4210   17.5468    4.6330 H   0  0  0  0  0  0  0  0  0  0  0  0
   18.5913   16.6345    2.3208 H   0  0  0  0  0  0  0  0  0  0  0  0
   16.9528   17.3309    0.5858 H   0  0  0  0  0  0  0  0  0  0  0  0
   15.1507   18.9394    1.1603 H   0  0  0  0  0  0  0  0  0  0  0  0
   13.5630   23.1877    7.8937 H   0  0  0  0  0  0  0  0  0  0  0  0
   14.7704   23.4966    6.6598 H   0  0  0  0  0  0  0  0  0  0  0  0
   13.6984   20.8947    9.1775 H   0  0  0  0  0  0  0  0  0  0  0  0
   15.3475   19.4998   10.4186 H   0  0  0  0  0  0  0  0  0  0  0  0
   17.7719   19.6583    9.8787 H   0  0  0  0  0  0  0  0  0  0  0  0
   18.5453   21.2206    8.1021 H   0  0  0  0  0  0  0  0  0  0  0  0
   16.9073   22.6076    6.8614 H   0  0  0  0  0  0  0  0  0  0  0  0
   15.3014   24.5264    3.6944 H   0  0  0  0  0  0  0  0  0  0  0  0
   14.1782   25.7474    4.0159 H   0  0  0  0  0  0  0  0  0  0  0  0
   11.1249   22.1178    3.5459 H   0  0  0  0  0  0  0  0  0  0  0  0
   11.0626   23.4899    2.4541 H   0  0  0  0  0  0  0  0  0  0  0  0
   10.2184   25.5521    2.6803 H   0  0  0  0  0  0  0  0  0  0  0  0
    8.8497   27.1169    1.3945 H   0  0  0  0  0  0  0  0  0  0  0  0
    6.4573   26.6035    0.9482 H   0  0  0  0  0  0  0  0  0  0  0  0
    5.4664   24.4959    1.8190 H   0  0  0  0  0  0  0  0  0  0  0  0
    6.8656   22.9006    3.1163 H   0  0  0  0  0  0  0  0  0  0  0  0
   15.1995   20.5057    5.4940 H   0  0  0  0  0  0  0  0  0  0  0  0
   15.8428   21.6167    4.2634 H   0  0  0  0  0  0  0  0  0  0  0  0
  1  8  1  0  0  0  0
  1  7  1  0  0  0  0
  1  2  1  0  0  0  0
  2 40  2  0  0  0  0
  2 15  2  0  0  0  0
  2  3  1  0  0  0  0
  3 23  1  0  0  0  0
  3  4  1  0  0  0  0
  4 41  1  0  0  0  0
  4  5  1  0  0  0  0
  4 42  1  6  0  0  0
  5 30  1  0  0  0  0
  5  6  1  0  0  0  0
  5 43  1  6  0  0  0
  6 31  1  0  0  0  0
  6  7  1  0  0  0  0
  6 44  1  1  0  0  0
  7 32  1  0  0  0  0
  7 45  1  6  0  0  0
  8  9  1  0  0  0  0
  8 46  1  0  0  0  0
  8 47  1  0  0  0  0
  9 14  2  0  0  0  0
  9 10  1  0  0  0  0
 10 11  2  0  0  0  0
 10 48  1  0  0  0  0
 11 12  1  0  0  0  0
 11 49  1  0  0  0  0
 12 13  2  0  0  0  0
 12 50  1  0  0  0  0
 13 14  1  0  0  0  0
 13 51  1  0  0  0  0
 14 52  1  0  0  0  0
 16 41  1  0  0  0  0
 16 17  1  0  0  0  0
 17 22  2  0  0  0  0
 17 18  1  0  0  0  0
 18 19  2  0  0  0  0
 18 53  1  0  0  0  0
 19 20  1  0  0  0  0
 19 54  1  0  0  0  0
 20 21  2  0  0  0  0
 20 55  1  0  0  0  0
 21 22  1  0  0  0  0
 21 56  1  0  0  0  0
 22 57  1  0  0  0  0
 23 24  1  0  0  0  0
 23 58  1  0  0  0  0
 23 59  1  0  0  0  0
 24 29  2  0  0  0  0
 24 25  1  0  0  0  0
 25 26  2  0  0  0  0
 25 60  1  0  0  0  0
 26 27  1  0  0  0  0
 26 61  1  0  0  0  0
 27 28  2  0  0  0  0
 27 62  1  0  0  0  0
 28 29  1  0  0  0  0
 28 63  1  0  0  0  0
 29 64  1  0  0  0  0
 30 65  1  0  0  0  0
 31 66  1  0  0  0  0
 32 33  1  0  0  0  0
 32 67  1  0  0  0  0
 32 68  1  0  0  0  0
 33 34  1  0  0  0  0
 34 39  2  0  0  0  0
 34 35  1  0  0  0  0
 35 36  2  0  0  0  0
 35 69  1  0  0  0  0
 36 37  1  0  0  0  0
 36 70  1  0  0  0  0
 37 38  2  0  0  0  0
 37 71  1  0  0  0  0
 38 39  1  0  0  0  0
 38 72  1  0  0  0  0
 39 73  1  0  0  0  0
 41 74  1  0  0  0  0
 41 75  1  0  0  0  0
M  END
$$$$
