NON
 OpenBabel04041916563D

 88 90  0  0  1  0  0  0  0  0999 V2000
   -2.4206   59.3467    3.8459 C   0  0  0  0  0  0  0  0  0  0  0  0
   -2.1926   58.1981    4.8005 C   0  0  0  0  0  0  0  0  0  0  0  0
   -1.5058   58.4167    5.8176 O   0  0  0  0  0  0  0  0  0  0  0  0
   -2.7535   56.9643    4.5665 N   0  0  0  0  0  0  0  0  0  0  0  0
   -3.4724   56.5900    3.3505 C   0  0  0  0  0  0  0  0  0  0  0  0
   -2.4542   55.8886    5.5553 C   0  0  2  0  0  0  0  0  0  0  0  0
   -1.1316   55.1458    5.2605 C   0  0  0  0  0  0  0  0  0  0  0  0
   -1.1103   54.5344    3.9686 O   0  0  0  0  0  0  0  0  0  0  0  0
   -3.5681   54.8378    5.7270 C   0  0  0  0  0  0  0  0  0  0  0  0
   -4.1074   54.2617    4.7811 O   0  0  0  0  0  0  0  0  0  0  0  0
   -3.8908   54.5388    7.0358 N   0  0  0  0  0  0  0  0  0  0  0  0
   -4.8075   53.4394    7.2954 C   0  0  2  0  0  0  0  0  0  0  0  0
   -5.3485   53.5246    8.7110 C   0  0  0  0  0  0  0  0  0  0  0  0
   -4.0545   52.1193    7.0885 C   0  0  0  0  0  0  0  0  0  0  0  0
   -2.8516   52.0057    7.3039 O   0  0  0  0  0  0  0  0  0  0  0  0
   -4.8539   51.0828    6.6601 N   0  0  0  0  0  0  0  0  0  0  0  0
   -4.2577   49.8006    6.3723 C   0  0  0  0  0  0  0  0  0  0  0  0
   -3.8684   49.0453    7.6476 C   0  0  0  0  0  0  0  0  0  0  0  0
   -4.1444   49.4818    8.7685 O   0  0  0  0  0  0  0  0  0  0  0  0
   -3.2684   47.8087    7.4619 N   0  0  0  0  0  0  0  0  0  0  0  0
   -2.9345   47.2428    6.1528 C   0  0  0  0  0  0  0  0  0  0  0  0
   -2.8717   47.0568    8.6680 C   0  0  2  0  0  0  0  0  0  0  0  0
   -1.3239   47.1274    8.9316 C   0  0  0  0  0  0  0  0  0  0  0  0
   -0.4965   47.5567    8.1328 O   0  0  0  0  0  0  0  0  0  0  0  0
   -0.9497   46.5694   10.1452 N   0  0  0  0  0  0  0  0  0  0  0  0
    0.4423   46.3185   10.5311 C   0  0  1  0  0  0  0  0  0  0  0  0
    0.9437   47.4634   11.3880 C   0  0  0  0  0  0  0  0  0  0  0  0
    0.4265   45.0074   11.3390 C   0  0  0  0  0  0  0  0  0  0  0  0
   -0.2448   44.9013   12.3664 O   0  0  0  0  0  0  0  0  0  0  0  0
    1.0082   43.9384   10.6930 N   0  0  0  0  0  0  0  0  0  0  0  0
    1.1231   42.6060   11.3462 C   0  0  2  0  0  0  0  0  0  0  0  0
    2.3131   42.4734   12.3438 C   0  0  0  0  0  0  0  0  0  0  0  0
    2.2656   41.4681   13.1102 O   0  0  0  0  0  0  0  0  0  0  0  0
    3.2020   43.3717   12.2463 O   0  0  0  0  0  0  0  0  0  0  0  0
    1.2835   41.4889   10.2857 C   0  0  0  0  0  0  0  0  0  0  0  0
    0.1303   41.3337    9.2977 C   0  0  0  0  0  0  0  0  0  0  0  0
   -0.9713   42.1940    9.3131 C   0  0  0  0  0  0  0  0  0  0  0  0
    0.1530   40.3393    8.3178 C   0  0  0  0  0  0  0  0  0  0  0  0
   -0.8821   40.2436    7.3758 C   0  0  0  0  0  0  0  0  0  0  0  0
   -1.9370   41.1566    7.3837 C   0  0  0  0  0  0  0  0  0  0  0  0
   -2.8761   41.0180    6.4009 O   0  0  0  0  0  0  0  0  0  0  0  0
   -1.9849   42.1668    8.3423 C   0  0  0  0  0  0  0  0  0  0  0  0
   -2.9986   43.2225    8.3861 C   0  0  0  0  0  0  0  0  0  0  0  0
   -2.5467   44.5464    8.4346 C   0  0  0  0  0  0  0  0  0  0  0  0
   -3.4104   45.6360    8.5950 C   0  0  0  0  0  0  0  0  0  0  0  0
   -4.7879   45.3835    8.6249 C   0  0  0  0  0  0  0  0  0  0  0  0
   -5.2698   44.0782    8.5101 C   0  0  0  0  0  0  0  0  0  0  0  0
   -4.3807   43.0114    8.4108 C   0  0  0  0  0  0  0  0  0  0  0  0
   -4.9262   41.7637    8.3072 O   0  0  0  0  0  0  0  0  0  0  0  0
   -3.0196   59.1242    2.9697 H   0  0  0  0  0  0  0  0  0  0  0  0
   -1.4457   59.7005    3.4949 H   0  0  0  0  0  0  0  0  0  0  0  0
   -2.9309   60.1540    4.3831 H   0  0  0  0  0  0  0  0  0  0  0  0
   -3.5800   57.3996    2.6372 H   0  0  0  0  0  0  0  0  0  0  0  0
   -4.4832   56.2801    3.6196 H   0  0  0  0  0  0  0  0  0  0  0  0
   -2.9374   55.7866    2.8444 H   0  0  0  0  0  0  0  0  0  0  0  0
   -2.3285   56.3670    6.5368 H   0  0  0  0  0  0  0  0  0  0  0  0
   -0.9509   54.3567    6.0014 H   0  0  0  0  0  0  0  0  0  0  0  0
   -0.2863   55.8397    5.3035 H   0  0  0  0  0  0  0  0  0  0  0  0
   -1.8817   53.9380    3.9188 H   0  0  0  0  0  0  0  0  0  0  0  0
   -3.1835   54.7064    7.7427 H   0  0  0  0  0  0  0  0  0  0  0  0
   -5.6332   53.4947    6.5755 H   0  0  0  0  0  0  0  0  0  0  0  0
   -6.0790   52.7337    8.9067 H   0  0  0  0  0  0  0  0  0  0  0  0
   -5.8314   54.4939    8.8742 H   0  0  0  0  0  0  0  0  0  0  0  0
   -4.5428   53.4261    9.4473 H   0  0  0  0  0  0  0  0  0  0  0  0
   -5.8025   51.2576    6.3604 H   0  0  0  0  0  0  0  0  0  0  0  0
   -3.3746   49.9644    5.7473 H   0  0  0  0  0  0  0  0  0  0  0  0
   -5.0070   49.2105    5.8350 H   0  0  0  0  0  0  0  0  0  0  0  0
   -3.2592   47.8718    5.3240 H   0  0  0  0  0  0  0  0  0  0  0  0
   -3.4416   46.2820    6.0316 H   0  0  0  0  0  0  0  0  0  0  0  0
   -1.8556   47.1058    6.0687 H   0  0  0  0  0  0  0  0  0  0  0  0
   -3.3173   47.5200    9.5566 H   0  0  0  0  0  0  0  0  0  0  0  0
   -1.6527   46.2109   10.7837 H   0  0  0  0  0  0  0  0  0  0  0  0
    1.0564   46.2109    9.6309 H   0  0  0  0  0  0  0  0  0  0  0  0
    1.9743   47.2866   11.7082 H   0  0  0  0  0  0  0  0  0  0  0  0
    0.3272   47.5817   12.2866 H   0  0  0  0  0  0  0  0  0  0  0  0
    0.9031   48.4064   10.8333 H   0  0  0  0  0  0  0  0  0  0  0  0
    1.6902   44.1225    9.9700 H   0  0  0  0  0  0  0  0  0  0  0  0
    0.2065   42.4376   11.9265 H   0  0  0  0  0  0  0  0  0  0  0  0
    1.4342   40.5205   10.7792 H   0  0  0  0  0  0  0  0  0  0  0  0
    2.1909   41.6935    9.6989 H   0  0  0  0  0  0  0  0  0  0  0  0
   -1.0493   42.9551   10.0841 H   0  0  0  0  0  0  0  0  0  0  0  0
    0.9755   39.6281    8.2775 H   0  0  0  0  0  0  0  0  0  0  0  0
   -0.8613   39.4558    6.6254 H   0  0  0  0  0  0  0  0  0  0  0  0
   -3.4938   41.7758    6.4460 H   0  0  0  0  0  0  0  0  0  0  0  0
   -1.4704   44.7168    8.3683 H   0  0  0  0  0  0  0  0  0  0  0  0
   -5.4964   46.2075    8.7150 H   0  0  0  0  0  0  0  0  0  0  0  0
   -6.3418   43.8848    8.5176 H   0  0  0  0  0  0  0  0  0  0  0  0
   -4.2249   41.0980    8.4371 H   0  0  0  0  0  0  0  0  0  0  0  0
  1  2  1  0  0  0  0
  1 50  1  0  0  0  0
  1 51  1  0  0  0  0
  1 52  1  0  0  0  0
  2  3  2  0  0  0  0
  2  4  1  0  0  0  0
  4  5  1  0  0  0  0
  4  6  1  0  0  0  0
  5 53  1  0  0  0  0
  5 54  1  0  0  0  0
  5 55  1  0  0  0  0
  6  7  1  0  0  0  0
  6  9  1  0  0  0  0
  6 56  1  1  0  0  0
  7  8  1  0  0  0  0
  7 57  1  0  0  0  0
  7 58  1  0  0  0  0
  8 59  1  0  0  0  0
  9 10  2  0  0  0  0
  9 11  1  0  0  0  0
 11 12  1  0  0  0  0
 11 60  1  0  0  0  0
 12 13  1  0  0  0  0
 12 14  1  0  0  0  0
 12 61  1  6  0  0  0
 13 62  1  0  0  0  0
 13 63  1  0  0  0  0
 13 64  1  0  0  0  0
 14 15  2  0  0  0  0
 14 16  1  0  0  0  0
 16 17  1  0  0  0  0
 16 65  1  0  0  0  0
 17 18  1  0  0  0  0
 17 66  1  0  0  0  0
 17 67  1  0  0  0  0
 18 19  2  0  0  0  0
 18 20  1  0  0  0  0
 20 21  1  0  0  0  0
 20 22  1  0  0  0  0
 21 68  1  0  0  0  0
 21 69  1  0  0  0  0
 21 70  1  0  0  0  0
 22 23  1  0  0  0  0
 22 45  1  0  0  0  0
 22 71  1  1  0  0  0
 23 24  2  0  0  0  0
 23 25  1  0  0  0  0
 25 26  1  0  0  0  0
 25 72  1  0  0  0  0
 26 27  1  0  0  0  0
 26 28  1  0  0  0  0
 26 73  1  6  0  0  0
 27 74  1  0  0  0  0
 27 75  1  0  0  0  0
 27 76  1  0  0  0  0
 28 29  2  0  0  0  0
 28 30  1  0  0  0  0
 30 31  1  0  0  0  0
 30 77  1  0  0  0  0
 31 32  1  0  0  0  0
 31 35  1  0  0  0  0
 31 78  1  1  0  0  0
 32 33  2  0  0  0  0
 32 34  1  0  0  0  0
 35 36  1  0  0  0  0
 35 79  1  0  0  0  0
 35 80  1  0  0  0  0
 36 37  2  0  0  0  0
 36 38  1  0  0  0  0
 37 42  1  0  0  0  0
 37 81  1  0  0  0  0
 38 39  2  0  0  0  0
 38 82  1  0  0  0  0
 39 40  1  0  0  0  0
 39 83  1  0  0  0  0
 40 41  1  0  0  0  0
 40 42  2  0  0  0  0
 41 84  1  0  0  0  0
 42 43  1  0  0  0  0
 43 44  2  0  0  0  0
 43 48  1  0  0  0  0
 44 45  1  0  0  0  0
 44 85  1  0  0  0  0
 45 46  2  0  0  0  0
 46 47  1  0  0  0  0
 46 86  1  0  0  0  0
 47 48  2  0  0  0  0
 47 87  1  0  0  0  0
 48 49  1  0  0  0  0
 49 88  1  0  0  0  0
M  END
$$$$
