NON
 OpenBabel04041917093D

 22 21  0  0  1  0  0  0  0  0999 V2000
   32.7068   -1.4667   39.8176 N   0  3  0  0  0  0  0  0  0  0  0  0
   33.6042   -1.5752   38.6023 C   0  0  2  0  0  0  0  0  0  0  0  0
   33.0766   -2.6074   37.5651 C   0  0  0  0  0  0  0  0  0  0  0  0
   32.0178   -3.1593   37.9649 O   0  0  0  0  0  0  0  0  0  0  0  0
   34.9995   -1.9880   39.0558 C   0  0  0  0  0  0  0  0  0  0  0  0
   35.6780   -1.0721   40.0921 C   0  0  0  0  0  0  0  0  0  0  0  0
   37.0009   -1.7004   40.5266 C   0  0  0  0  0  0  0  0  0  0  0  0
   35.9198    0.3241   39.5261 C   0  0  0  0  0  0  0  0  0  0  0  0
   33.7451   -2.7211   36.5107 O   0  0  0  0  0  0  0  0  0  0  0  0
   33.0310   -0.7914   40.4940 H   0  0  0  0  0  0  0  0  0  0  0  0
   31.7653   -1.2467   39.4665 H   0  0  0  0  0  0  0  0  0  0  0  0
   33.6028   -0.5839   38.1488 H   0  0  0  0  0  0  0  0  0  0  0  0
   35.6457   -2.0315   38.1722 H   0  0  0  0  0  0  0  0  0  0  0  0
   34.9556   -3.0001   39.4745 H   0  0  0  0  0  0  0  0  0  0  0  0
   35.0513   -0.9790   40.9846 H   0  0  0  0  0  0  0  0  0  0  0  0
   37.5119   -1.0709   41.2607 H   0  0  0  0  0  0  0  0  0  0  0  0
   37.6711   -1.8437   39.6706 H   0  0  0  0  0  0  0  0  0  0  0  0
   36.8235   -2.6790   40.9843 H   0  0  0  0  0  0  0  0  0  0  0  0
   34.9786    0.7877   39.2218 H   0  0  0  0  0  0  0  0  0  0  0  0
   36.5824    0.2855   38.6546 H   0  0  0  0  0  0  0  0  0  0  0  0
   36.3790    0.9716   40.2795 H   0  0  0  0  0  0  0  0  0  0  0  0
   32.6100   -2.4125   40.1975 H   0  0  0  0  0  0  0  0  0  0  0  0
  1  2  1  0  0  0  0
  1 10  1  0  0  0  0
  1 11  1  0  0  0  0
  1 22  1  0  0  0  0
  2  3  1  0  0  0  0
  2  5  1  0  0  0  0
  2 12  1  6  0  0  0
  3  4  2  0  0  0  0
  3  9  1  0  0  0  0
  5  6  1  0  0  0  0
  5 13  1  0  0  0  0
  5 14  1  0  0  0  0
  6  7  1  0  0  0  0
  6  8  1  0  0  0  0
  6 15  1  0  0  0  0
  7 16  1  0  0  0  0
  7 17  1  0  0  0  0
  7 18  1  0  0  0  0
  8 19  1  0  0  0  0
  8 20  1  0  0  0  0
  8 21  1  0  0  0  0
M  CHG  1   1   1
M  END
$$$$
