NON
 OpenBabel04041916113D

 38 41  0  0  1  0  0  0  0  0999 V2000
   13.0535  -41.7487  -15.9094 C   0  0  0  0  0  0  0  0  0  0  0  0
   13.1565  -42.8188  -16.7828 C   0  0  0  0  0  0  0  0  0  0  0  0
   13.2895  -44.1122  -16.2639 C   0  0  0  0  0  0  0  0  0  0  0  0
   13.3304  -44.3126  -14.8453 C   0  0  0  0  0  0  0  0  0  0  0  0
   13.2328  -43.1884  -13.9810 C   0  0  0  0  0  0  0  0  0  0  0  0
   13.0895  -41.9061  -14.5229 C   0  0  0  0  0  0  0  0  0  0  0  0
   13.3800  -45.1805  -17.1566 C   0  0  0  0  0  0  0  0  0  0  0  0
   13.5002  -46.4825  -16.6583 C   0  0  0  0  0  0  0  0  0  0  0  0
   13.5150  -46.7126  -15.2698 C   0  0  0  0  0  0  0  0  0  0  0  0
   13.4635  -45.6332  -14.3447 C   0  0  0  0  0  0  0  0  0  0  0  0
   13.6297  -48.1218  -14.7653 C   0  0  1  0  0  0  0  0  0  0  0  0
   13.0115  -48.3094  -13.3685 C   0  0  2  0  0  0  0  0  0  0  0  0
   13.6283  -47.3419  -12.3672 C   0  0  0  0  0  0  0  0  0  0  0  0
   13.4954  -45.8760  -12.8279 C   0  0  0  0  0  0  0  0  0  0  0  0
   12.9437  -49.2567  -15.5494 C   0  0  0  0  0  0  0  0  0  0  0  0
   13.2627  -50.4622  -14.6485 C   0  0  0  0  0  0  0  0  0  0  0  0
   13.3131  -49.7962  -13.2699 C   0  0  0  0  0  0  0  0  0  0  0  0
   11.4854  -48.1440  -13.3549 C   0  0  0  0  0  0  0  0  0  0  0  0
   12.9191  -40.5157  -16.4823 O   0  0  0  0  0  0  0  0  0  0  0  0
   13.5687  -50.3834  -12.1980 O   0  0  0  0  0  0  0  0  0  0  0  0
   13.1243  -42.6313  -17.8576 H   0  0  0  0  0  0  0  0  0  0  0  0
   13.2639  -43.2897  -12.8950 H   0  0  0  0  0  0  0  0  0  0  0  0
   13.0230  -41.0549  -13.8544 H   0  0  0  0  0  0  0  0  0  0  0  0
   13.3542  -45.0178  -18.2399 H   0  0  0  0  0  0  0  0  0  0  0  0
   13.5672  -47.3228  -17.3558 H   0  0  0  0  0  0  0  0  0  0  0  0
   14.7101  -48.3574  -14.7324 H   0  0  0  0  0  0  0  0  0  0  0  0
   14.6894  -47.5708  -12.2254 H   0  0  0  0  0  0  0  0  0  0  0  0
   13.1393  -47.4477  -11.3857 H   0  0  0  0  0  0  0  0  0  0  0  0
   12.5686  -45.4612  -12.3924 H   0  0  0  0  0  0  0  0  0  0  0  0
   14.3371  -45.3036  -12.4034 H   0  0  0  0  0  0  0  0  0  0  0  0
   13.2987  -49.3622  -16.5765 H   0  0  0  0  0  0  0  0  0  0  0  0
   11.8600  -49.0869  -15.6393 H   0  0  0  0  0  0  0  0  0  0  0  0
   14.2401  -50.8844  -14.9315 H   0  0  0  0  0  0  0  0  0  0  0  0
   12.5012  -51.2458  -14.7177 H   0  0  0  0  0  0  0  0  0  0  0  0
   10.9933  -48.8386  -14.0359 H   0  0  0  0  0  0  0  0  0  0  0  0
   11.1983  -47.1321  -13.6472 H   0  0  0  0  0  0  0  0  0  0  0  0
   11.0775  -48.3598  -12.3652 H   0  0  0  0  0  0  0  0  0  0  0  0
   12.0738  -40.1555  -16.1750 H   0  0  0  0  0  0  0  0  0  0  0  0
  1  2  2  0  0  0  0
  1  6  1  0  0  0  0
  1 19  1  0  0  0  0
  2  3  1  0  0  0  0
  2 21  1  0  0  0  0
  3  4  2  0  0  0  0
  3  7  1  0  0  0  0
  4  5  1  0  0  0  0
  4 10  1  0  0  0  0
  5  6  2  0  0  0  0
  5 22  1  0  0  0  0
  6 23  1  0  0  0  0
  7  8  2  0  0  0  0
  7 24  1  0  0  0  0
  8  9  1  0  0  0  0
  8 25  1  0  0  0  0
  9 10  2  0  0  0  0
  9 11  1  0  0  0  0
 10 14  1  0  0  0  0
 11 12  1  0  0  0  0
 11 15  1  0  0  0  0
 11 26  1  1  0  0  0
 12 13  1  0  0  0  0
 12 17  1  0  0  0  0
 12 18  1  6  0  0  0
 13 14  1  0  0  0  0
 13 27  1  0  0  0  0
 13 28  1  0  0  0  0
 14 29  1  0  0  0  0
 14 30  1  0  0  0  0
 15 16  1  0  0  0  0
 15 31  1  0  0  0  0
 15 32  1  0  0  0  0
 16 17  1  0  0  0  0
 16 33  1  0  0  0  0
 16 34  1  0  0  0  0
 17 20  2  0  0  0  0
 18 35  1  0  0  0  0
 18 36  1  0  0  0  0
 18 37  1  0  0  0  0
 19 38  1  0  0  0  0
M  END
$$$$
