NON
 OpenBabel04041915103D

 44 46  0  0  1  0  0  0  0  0999 V2000
  -20.5093   82.2857   57.6898 P   0  0  0  0  0  0  0  0  0  0  0  0
  -19.7710   81.2549   58.5485 O   0  0  0  0  0  0  0  0  0  0  0  0
  -22.0138   82.2539   57.9919 O   0  0  0  0  0  0  0  0  0  0  0  0
  -20.1925   82.1507   56.2071 O   0  0  0  0  0  0  0  0  0  0  0  0
  -19.9322   83.7367   58.1957 O   0  0  0  0  0  0  0  0  0  0  0  0
  -19.6637   84.9997   57.2187 P   0  0  1  0  0  0  0  0  0  0  0  0
  -18.5334   84.7745   56.2348 O   0  0  0  0  0  0  0  0  0  0  0  0
  -20.9978   85.5717   56.7380 O   0  0  0  0  0  0  0  0  0  0  0  0
  -19.1020   86.1079   58.2739 O   0  0  0  0  0  0  0  0  0  0  0  0
  -17.5766   86.6327   58.3266 P   0  0  1  0  0  0  0  0  0  0  0  0
  -16.6375   85.6374   59.0111 O   0  0  0  0  0  0  0  0  0  0  0  0
  -17.1205   87.4641   57.1507 O   0  0  0  0  0  0  0  0  0  0  0  0
  -17.8104   87.7983   59.4803 O   0  0  0  0  0  0  0  0  0  0  0  0
  -16.7295   88.0884   60.3471 C   0  0  0  0  0  0  0  0  0  0  0  0
  -17.0521   87.4963   61.7268 C   0  0  1  0  0  0  0  0  0  0  0  0
  -15.8411   87.3173   62.4987 O   0  0  0  0  0  0  0  0  0  0  0  0
  -18.0198   88.3645   62.5504 C   0  0  1  0  0  0  0  0  0  0  0  0
  -19.2957   87.7550   62.7716 O   0  0  0  0  0  0  0  0  0  0  0  0
  -17.3226   88.6134   63.8894 C   0  0  1  0  0  0  0  0  0  0  0  0
  -18.0531   88.1333   65.0399 O   0  0  0  0  0  0  0  0  0  0  0  0
  -15.9659   87.9175   63.7830 C   0  0  2  0  0  0  0  0  0  0  0  0
  -14.8111   88.8030   63.9827 N   0  3  0  0  0  0  0  0  0  0  0  0
  -13.7494   88.5635   64.7905 C   0  0  0  0  0  0  0  0  0  0  0  0
  -12.8545   89.5418   64.8142 N   0  0  0  0  0  0  0  0  0  0  0  0
  -13.3795   90.4541   63.9234 C   0  0  0  0  0  0  0  0  0  0  0  0
  -12.8783   91.7498   63.5017 C   0  0  0  0  0  0  0  0  0  0  0  0
  -11.8474   92.2677   63.8933 O   0  0  0  0  0  0  0  0  0  0  0  0
  -13.7375   92.3781   62.6060 N   0  3  0  0  0  0  0  0  0  0  0  0
  -14.9416   91.8623   62.1707 C   0  0  0  0  0  0  0  0  0  0  0  0
  -15.6555   92.6529   61.3330 N   0  0  0  0  0  0  0  0  0  0  0  0
  -15.3951   90.7107   62.5469 N   0  0  0  0  0  0  0  0  0  0  0  0
  -14.5882   90.0186   63.4142 C   0  0  0  0  0  0  0  0  0  0  0  0
  -16.6379   89.1795   60.4015 H   0  0  0  0  0  0  0  0  0  0  0  0
  -15.7649   87.7204   59.9743 H   0  0  0  0  0  0  0  0  0  0  0  0
  -17.5024   86.5116   61.5654 H   0  0  0  0  0  0  0  0  0  0  0  0
  -18.2153   89.3257   62.0591 H   0  0  0  0  0  0  0  0  0  0  0  0
  -19.1639   86.8142   62.9824 H   0  0  0  0  0  0  0  0  0  0  0  0
  -17.2082   89.6852   64.0613 H   0  0  0  0  0  0  0  0  0  0  0  0
  -18.2554   87.1938   64.8799 H   0  0  0  0  0  0  0  0  0  0  0  0
  -15.9010   87.1241   64.5341 H   0  0  0  0  0  0  0  0  0  0  0  0
  -13.6202   87.6552   65.3910 H   0  0  0  0  0  0  0  0  0  0  0  0
  -13.4461   93.2845   62.2716 H   0  0  0  0  0  0  0  0  0  0  0  0
  -16.5040   92.2692   60.9220 H   0  0  0  0  0  0  0  0  0  0  0  0
  -15.3141   93.5190   60.9481 H   0  0  0  0  0  0  0  0  0  0  0  0
  1  2  2  0  0  0  0
  1  3  1  0  0  0  0
  1  4  1  0  0  0  0
  1  5  1  0  0  0  0
  6  5  1  1  0  0  0
  6  7  2  0  0  0  0
  6  8  1  0  0  0  0
  6  9  1  0  0  0  0
 10  9  1  6  0  0  0
 10 11  2  0  0  0  0
 10 12  1  0  0  0  0
 10 13  1  0  0  0  0
 13 14  1  0  0  0  0
 14 15  1  0  0  0  0
 14 33  1  0  0  0  0
 14 34  1  0  0  0  0
 15 16  1  0  0  0  0
 15 17  1  0  0  0  0
 15 35  1  6  0  0  0
 16 21  1  0  0  0  0
 17 18  1  0  0  0  0
 17 19  1  0  0  0  0
 17 36  1  6  0  0  0
 18 37  1  0  0  0  0
 19 20  1  0  0  0  0
 19 21  1  0  0  0  0
 19 38  1  1  0  0  0
 20 39  1  0  0  0  0
 21 22  1  0  0  0  0
 21 40  1  1  0  0  0
 22 23  2  0  0  0  0
 22 32  1  0  0  0  0
 23 24  1  0  0  0  0
 23 41  1  0  0  0  0
 24 25  1  0  0  0  0
 25 26  1  0  0  0  0
 25 32  2  0  0  0  0
 26 27  2  0  0  0  0
 26 28  1  0  0  0  0
 28 29  1  0  0  0  0
 28 42  1  0  0  0  0
 29 30  1  0  0  0  0
 29 31  2  0  0  0  0
 30 43  1  0  0  0  0
 30 44  1  0  0  0  0
 31 32  1  0  0  0  0
M  CHG  2  22   1  28   1
M  END
$$$$
