NST
 OpenBabel04041917383D

 28 29  0  0  0  0  0  0  0  0999 V2000
   79.3329    4.3063   31.1869 N   0  0  0  0  0  0  0  0  0  0  0  0
   80.6325    4.6455   31.6549 C   0  0  0  0  0  0  0  0  0  0  0  0
   80.8732    4.5778   33.0327 C   0  0  0  0  0  0  0  0  0  0  0  0
   81.6759    4.9736   30.7896 C   0  0  0  0  0  0  0  0  0  0  0  0
   82.1360    4.8774   33.5648 C   0  0  0  0  0  0  0  0  0  0  0  0
   82.9414    5.2737   31.3243 C   0  0  0  0  0  0  0  0  0  0  0  0
   83.1765    5.2311   32.7063 C   0  0  0  0  0  0  0  0  0  0  0  0
   84.0458    5.6322   30.4261 N   0  0  0  0  0  0  0  0  0  0  0  0
   78.2577    5.4880   30.6449 S   0  0  0  0  0  0  0  0  0  0  0  0
   78.6867    6.2579   29.1324 C   0  0  0  0  0  0  0  0  0  0  0  0
   76.9663    4.8750   30.4196 O   0  0  0  0  0  0  0  0  0  0  0  0
   78.3430    6.5806   31.6059 O   0  0  0  0  0  0  0  0  0  0  0  0
   78.8425    5.6542   27.8770 C   0  0  0  0  0  0  0  0  0  0  0  0
   78.8414    7.6988   28.9938 C   0  0  0  0  0  0  0  0  0  0  0  0
   79.1846    6.7934   26.6394 S   0  0  0  0  0  0  0  0  0  0  0  0
   78.7571    4.1891   27.5918 C   0  0  0  0  0  0  0  0  0  0  0  0
   79.1253    8.1013   27.7172 C   0  0  0  0  0  0  0  0  0  0  0  0
   78.6282    3.4322   28.5918 O   0  0  0  0  0  0  0  0  0  0  0  0
   78.8780    3.8450   26.3786 O   0  0  0  0  0  0  0  0  0  0  0  0
   83.8185    5.6795   29.2104 O   0  0  0  0  0  0  0  0  0  0  0  0
   85.1522    5.8799   30.9366 O   0  0  0  0  0  0  0  0  0  0  0  0
   79.1538    3.3992   30.7356 H   0  0  0  0  0  0  0  0  0  0  0  0
   80.0686    4.2904   33.7102 H   0  0  0  0  0  0  0  0  0  0  0  0
   81.5014    4.9811   29.7181 H   0  0  0  0  0  0  0  0  0  0  0  0
   82.3015    4.8363   34.6386 H   0  0  0  0  0  0  0  0  0  0  0  0
   84.1543    5.4646   33.1279 H   0  0  0  0  0  0  0  0  0  0  0  0
   78.7342    8.4017   29.8188 H   0  0  0  0  0  0  0  0  0  0  0  0
   79.2955    9.1014   27.3319 H   0  0  0  0  0  0  0  0  0  0  0  0
  1  2  1  0  0  0  0
  1  9  1  0  0  0  0
  1 22  1  0  0  0  0
  2  3  2  0  0  0  0
  2  4  1  0  0  0  0
  3  5  1  0  0  0  0
  3 23  1  0  0  0  0
  4  6  2  0  0  0  0
  4 24  1  0  0  0  0
  5  7  2  0  0  0  0
  5 25  1  0  0  0  0
  6  7  1  0  0  0  0
  6  8  1  0  0  0  0
  7 26  1  0  0  0  0
  8 20  2  0  0  0  0
  8 21  2  0  0  0  0
  9 10  1  0  0  0  0
  9 11  2  0  0  0  0
  9 12  2  0  0  0  0
 10 13  2  0  0  0  0
 10 14  1  0  0  0  0
 13 15  1  0  0  0  0
 13 16  1  0  0  0  0
 14 17  2  0  0  0  0
 14 27  1  0  0  0  0
 15 17  1  0  0  0  0
 16 18  2  0  0  0  0
 16 19  1  0  0  0  0
 17 28  1  0  0  0  0
M  END
$$$$
