NTZ
 OpenBabel04041914243D

 24 25  0  0  1  0  0  0  0  0999 V2000
   47.2055  119.5642   52.5064 C   0  0  0  0  0  0  0  0  0  0  0  0
   47.9919  119.0104   53.6376 C   0  0  1  0  0  0  0  0  0  0  0  0
   48.4235  120.1149   54.6392 C   0  0  2  0  0  0  0  0  0  0  0  0
   48.7638  121.4281   53.8871 C   0  0  1  0  0  0  0  0  0  0  0  0
   47.4760  121.9518   53.2214 C   0  0  1  0  0  0  0  0  0  0  0  0
   47.6313  123.3121   52.5222 C   0  0  0  0  0  0  0  0  0  0  0  0
   46.9661  120.9031   52.3574 N   0  3  0  0  0  0  0  0  0  0  0  0
   46.3170  121.1337   51.2156 N   0  0  0  0  0  0  0  0  0  0  0  0
   46.2325  119.9509   50.6244 N   0  0  0  0  0  0  0  0  0  0  0  0
   46.7755  118.9637   51.4129 N   0  0  0  0  0  0  0  0  0  0  0  0
   47.2246  117.9980   54.2831 O   0  0  0  0  0  0  0  0  0  0  0  0
   49.5720  119.6698   55.3635 O   0  0  0  0  0  0  0  0  0  0  0  0
   49.2859  122.3716   54.8321 O   0  0  0  0  0  0  0  0  0  0  0  0
   48.5323  123.3105   51.4210 O   0  0  0  0  0  0  0  0  0  0  0  0
   48.8867  118.5187   53.2394 H   0  0  0  0  0  0  0  0  0  0  0  0
   47.6404  120.2920   55.3809 H   0  0  0  0  0  0  0  0  0  0  0  0
   49.5550  121.2262   53.1570 H   0  0  0  0  0  0  0  0  0  0  0  0
   46.7155  122.0923   54.0032 H   0  0  0  0  0  0  0  0  0  0  0  0
   47.9676  124.0793   53.2265 H   0  0  0  0  0  0  0  0  0  0  0  0
   46.6578  123.6476   52.1451 H   0  0  0  0  0  0  0  0  0  0  0  0
   46.4625  118.3953   54.7321 H   0  0  0  0  0  0  0  0  0  0  0  0
   49.8535  120.4280   55.9175 H   0  0  0  0  0  0  0  0  0  0  0  0
   49.6812  123.1145   54.3424 H   0  0  0  0  0  0  0  0  0  0  0  0
   49.4052  122.9725   51.6732 H   0  0  0  0  0  0  0  0  0  0  0  0
  1  2  1  0  0  0  0
  1  7  2  0  0  0  0
  1 10  1  0  0  0  0
  2  3  1  0  0  0  0
  2 11  1  0  0  0  0
  2 15  1  6  0  0  0
  3  4  1  0  0  0  0
  3 12  1  0  0  0  0
  3 16  1  1  0  0  0
  4  5  1  0  0  0  0
  4 13  1  0  0  0  0
  4 17  1  6  0  0  0
  5  6  1  0  0  0  0
  5  7  1  0  0  0  0
  5 18  1  1  0  0  0
  6 14  1  0  0  0  0
  6 19  1  0  0  0  0
  6 20  1  0  0  0  0
  7  8  1  0  0  0  0
  8  9  1  0  0  0  0
  9 10  2  0  0  0  0
 11 21  1  0  0  0  0
 12 22  1  0  0  0  0
 13 23  1  0  0  0  0
 14 24  1  0  0  0  0
M  CHG  1   7   1
M  END
$$$$
