OAI
 OpenBabel04041914103D

 24 25  0  0  1  0  0  0  0  0999 V2000
   45.2715   11.8000    2.0523 C   0  0  1  0  0  0  0  0  0  0  0  0
   45.4195   12.8928    2.9130 C   0  0  0  0  0  0  0  0  0  0  0  0
   44.7423   14.0782    2.5892 C   0  0  1  0  0  0  0  0  0  0  0  0
   43.9472   14.1578    1.4279 C   0  0  2  0  0  0  0  0  0  0  0  0
   43.7843   13.0225    0.6178 C   0  0  0  0  0  0  0  0  0  0  0  0
   44.4577   11.8345    0.9254 C   0  0  1  0  0  0  0  0  0  0  0  0
   44.5276   10.5613    0.3063 C   0  0  0  0  0  0  0  0  0  0  0  0
   45.4072    9.7960    1.0317 C   0  0  0  0  0  0  0  0  0  0  0  0
   45.8404   10.5500    2.0958 N   0  3  0  0  0  0  0  0  0  0  0  0
   44.8186   15.2151    3.4116 N   0  0  0  0  0  0  0  0  0  0  0  0
   45.3932   15.3970    4.6544 C   0  0  0  0  0  0  0  0  0  0  0  0
   45.0879   16.7630    5.3515 C   0  0  0  0  0  0  0  0  0  0  0  0
   46.0437   17.3490    5.9603 O   0  0  0  0  0  0  0  0  0  0  0  0
   43.8971   17.1868    5.2287 O   0  0  0  0  0  0  0  0  0  0  0  0
   46.0837   14.6061    5.2912 O   0  0  0  0  0  0  0  0  0  0  0  0
   43.2571   15.4371    0.9743 C   0  0  0  0  0  0  0  0  0  0  0  0
   43.1214   16.3710    1.8144 O   0  0  0  0  0  0  0  0  0  0  0  0
   42.8763   15.4778   -0.2399 O   0  0  0  0  0  0  0  0  0  0  0  0
   46.0478   12.8228    3.7932 H   0  0  0  0  0  0  0  0  0  0  0  0
   43.1480   13.0823   -0.2635 H   0  0  0  0  0  0  0  0  0  0  0  0
   44.0025   10.2694   -0.5921 H   0  0  0  0  0  0  0  0  0  0  0  0
   45.7651    8.7922    0.8794 H   0  0  0  0  0  0  0  0  0  0  0  0
   46.5005   10.2571    2.7992 H   0  0  0  0  0  0  0  0  0  0  0  0
   44.2281   16.0132    3.1100 H   0  0  0  0  0  0  0  0  0  0  0  0
  1  9  1  6  0  0  0
  1  6  1  0  0  0  0
  1  2  1  0  0  0  0
  2  3  1  0  0  0  0
  2 19  1  0  0  0  0
  3 10  1  1  0  0  0
  3  4  1  0  0  0  0
  4 16  1  6  0  0  0
  4  5  1  0  0  0  0
  5 20  1  0  0  0  0
  6  5  1  6  0  0  0
  6  7  1  0  0  0  0
  7  8  1  0  0  0  0
  7 21  1  0  0  0  0
  8  9  1  0  0  0  0
  8 22  1  0  0  0  0
  9 23  1  0  0  0  0
 10 11  1  0  0  0  0
 10 24  1  0  0  0  0
 11 15  2  0  0  0  0
 11 12  1  0  0  0  0
 12 14  2  0  0  0  0
 12 13  1  0  0  0  0
 16 18  2  0  0  0  0
 16 17  1  0  0  0  0
M  CHG  1   9   1
M  END
$$$$
