OHH
 OpenBabel04041916553D

 82 88  0  0  1  0  0  0  0  0999 V2000
   -1.7674   31.3348   23.9217 O   0  0  0  0  0  0  0  0  0  0  0  0
   -3.4377   41.2569   21.4084 P   0  0  0  0  0  0  0  0  0  0  0  0
   -2.0471   41.9404   21.2052 O   0  0  0  0  0  0  0  0  0  0  0  0
   -4.2347   41.0547   20.1477 O   0  0  0  0  0  0  0  0  0  0  0  0
   -4.2858   41.7521   22.5338 O   0  0  0  0  0  0  0  0  0  0  0  0
   -2.9741   39.4679   21.8944 C   0  0  1  0  0  0  0  0  0  0  0  0
   -2.9483   39.1138   24.3188 O   0  0  0  0  0  0  0  0  0  0  0  0
   -2.2467   39.3889   23.2359 C   0  0  0  0  0  0  0  0  0  0  0  0
    2.3790   40.1487   21.0867 C   0  0  0  0  0  0  0  0  0  0  0  0
    3.8036   40.1656   21.1768 C   0  0  0  0  0  0  0  0  0  0  0  0
    4.4415   39.8146   22.3807 C   0  0  0  0  0  0  0  0  0  0  0  0
    3.6779   39.4419   23.5229 C   0  0  0  0  0  0  0  0  0  0  0  0
    2.2388   39.4208   23.4631 C   0  0  0  0  0  0  0  0  0  0  0  0
    1.5682   39.7758   22.2281 C   0  0  0  0  0  0  0  0  0  0  0  0
    0.1079   39.7473   22.1864 C   0  0  0  0  0  0  0  0  0  0  0  0
   -0.6986   39.3976   23.3515 C   0  0  0  0  0  0  0  0  0  0  0  0
   -0.0152   39.0251   24.5539 C   0  0  0  0  0  0  0  0  0  0  0  0
    1.4313   39.0503   24.6070 C   0  0  0  0  0  0  0  0  0  0  0  0
   -0.7569   39.4444   26.8026 O   0  0  0  0  0  0  0  0  0  0  0  0
   -0.7350   38.6116   25.8417 C   0  0  0  0  0  0  0  0  0  0  0  0
   -6.3556   36.6246   21.5618 C   0  0  0  0  0  0  0  0  0  0  0  0
   -6.5001   37.7951   22.3491 C   0  0  0  0  0  0  0  0  0  0  0  0
   -5.4251   38.6982   22.4389 C   0  0  0  0  0  0  0  0  0  0  0  0
   -4.1798   38.4367   21.7439 C   0  0  0  0  0  0  0  0  0  0  0  0
   -4.0121   37.2448   20.9254 C   0  0  0  0  0  0  0  0  0  0  0  0
   -5.1398   36.3336   20.8508 C   0  0  0  0  0  0  0  0  0  0  0  0
   -5.0168   35.1404   20.0610 C   0  0  0  0  0  0  0  0  0  0  0  0
   -3.8282   34.8118   19.3529 C   0  0  0  0  0  0  0  0  0  0  0  0
   -2.7342   35.6731   19.4183 C   0  0  0  0  0  0  0  0  0  0  0  0
   -2.8085   36.8744   20.1839 C   0  0  0  0  0  0  0  0  0  0  0  0
   -1.1840   37.2574   26.0217 N   0  0  0  0  0  0  0  0  0  0  0  0
   -1.9019   36.9153   27.2699 C   0  0  0  0  0  0  0  0  0  0  0  0
   -0.3567   33.8269   24.2779 C   0  0  0  0  0  0  0  0  0  0  0  0
   -1.6788   33.6632   23.6168 N   0  0  0  0  0  0  0  0  0  0  0  0
   -2.2406   34.9359   23.1202 C   0  0  0  0  0  0  0  0  0  0  0  0
   -2.4512   35.9365   24.2600 C   0  0  0  0  0  0  0  0  0  0  0  0
   -1.0993   36.2241   24.9431 C   0  0  0  0  0  0  0  0  0  0  0  0
   -0.4258   34.8917   25.4066 C   0  0  0  0  0  0  0  0  0  0  0  0
   -2.3197   32.3714   23.4922 C   0  0  0  0  0  0  0  0  0  0  0  0
   -5.1706   31.3625   20.9692 C   0  0  0  0  0  0  0  0  0  0  0  0
   -3.8832   31.4820   21.6123 C   0  0  0  0  0  0  0  0  0  0  0  0
   -3.7267   32.2522   22.8035 C   0  0  0  0  0  0  0  0  0  0  0  0
   -4.9044   32.8555   23.3644 C   0  0  0  0  0  0  0  0  0  0  0  0
   -6.2249   32.7571   22.7432 C   0  0  0  0  0  0  0  0  0  0  0  0
   -6.3601   31.9902   21.5095 C   0  0  0  0  0  0  0  0  0  0  0  0
   -7.6663   31.9012   20.8946 C   0  0  0  0  0  0  0  0  0  0  0  0
   -8.8058   32.5445   21.4720 C   0  0  0  0  0  0  0  0  0  0  0  0
   -8.6831   33.2830   22.6628 C   0  0  0  0  0  0  0  0  0  0  0  0
   -7.4085   33.3902   23.2954 C   0  0  0  0  0  0  0  0  0  0  0  0
   -2.2233   39.1942   21.1520 H   0  0  0  0  0  0  0  0  0  0  0  0
    1.9072   40.4389   20.1216 H   0  0  0  0  0  0  0  0  0  0  0  0
    4.3981   40.4582   20.2993 H   0  0  0  0  0  0  0  0  0  0  0  0
    5.5405   39.8292   22.4463 H   0  0  0  0  0  0  0  0  0  0  0  0
    4.2172   39.1771   24.4509 H   0  0  0  0  0  0  0  0  0  0  0  0
   -0.3787   40.0454   21.2396 H   0  0  0  0  0  0  0  0  0  0  0  0
    1.9213   38.7805   25.5576 H   0  0  0  0  0  0  0  0  0  0  0  0
   -7.2200   35.9427   21.5105 H   0  0  0  0  0  0  0  0  0  0  0  0
   -7.4458   38.0005   22.8789 H   0  0  0  0  0  0  0  0  0  0  0  0
   -5.5667   39.6107   23.0460 H   0  0  0  0  0  0  0  0  0  0  0  0
   -5.8648   34.4322   19.9830 H   0  0  0  0  0  0  0  0  0  0  0  0
   -3.7852   33.8845   18.7597 H   0  0  0  0  0  0  0  0  0  0  0  0
   -1.8029   35.4311   18.8657 H   0  0  0  0  0  0  0  0  0  0  0  0
   -1.9041   37.5156   20.1834 H   0  0  0  0  0  0  0  0  0  0  0  0
   -1.9039   37.7573   27.9673 H   0  0  0  0  0  0  0  0  0  0  0  0
   -1.4067   36.0741   27.7691 H   0  0  0  0  0  0  0  0  0  0  0  0
   -2.9457   36.6319   27.0789 H   0  0  0  0  0  0  0  0  0  0  0  0
    0.3957   34.1466   23.5338 H   0  0  0  0  0  0  0  0  0  0  0  0
    0.0039   32.8647   24.6782 H   0  0  0  0  0  0  0  0  0  0  0  0
   -3.1799   34.7606   22.6015 H   0  0  0  0  0  0  0  0  0  0  0  0
   -1.5300   35.3753   22.4067 H   0  0  0  0  0  0  0  0  0  0  0  0
   -3.1808   35.5425   24.9758 H   0  0  0  0  0  0  0  0  0  0  0  0
   -2.8859   36.8552   23.8533 H   0  0  0  0  0  0  0  0  0  0  0  0
   -0.4547   36.6413   24.1654 H   0  0  0  0  0  0  0  0  0  0  0  0
    0.5869   35.0989   25.7868 H   0  0  0  0  0  0  0  0  0  0  0  0
   -0.9878   34.4516   26.2406 H   0  0  0  0  0  0  0  0  0  0  0  0
   -5.2207   30.7685   20.0273 H   0  0  0  0  0  0  0  0  0  0  0  0
   -3.0175   30.9853   21.1487 H   0  0  0  0  0  0  0  0  0  0  0  0
   -4.7980   33.4358   24.2966 H   0  0  0  0  0  0  0  0  0  0  0  0
   -7.8183   31.3324   19.9553 H   0  0  0  0  0  0  0  0  0  0  0  0
   -9.7920   32.4630   20.9788 H   0  0  0  0  0  0  0  0  0  0  0  0
   -9.5633   33.7809   23.1060 H   0  0  0  0  0  0  0  0  0  0  0  0
   -7.3497   33.9902   24.2326 H   0  0  0  0  0  0  0  0  0  0  0  0
  1 39  2  0  0  0  0
  2  3  2  0  0  0  0
  2  4  1  0  0  0  0
  2  5  1  0  0  0  0
  2  6  1  0  0  0  0
  6  8  1  0  0  0  0
  6 24  1  0  0  0  0
  6 50  1  6  0  0  0
  7  8  2  0  0  0  0
  8 16  1  0  0  0  0
  9 10  2  0  0  0  0
  9 14  1  0  0  0  0
  9 51  1  0  0  0  0
 10 11  1  0  0  0  0
 10 52  1  0  0  0  0
 11 12  2  0  0  0  0
 11 53  1  0  0  0  0
 12 13  1  0  0  0  0
 12 54  1  0  0  0  0
 13 14  2  0  0  0  0
 13 18  1  0  0  0  0
 14 15  1  0  0  0  0
 15 16  2  0  0  0  0
 15 55  1  0  0  0  0
 16 17  1  0  0  0  0
 17 18  2  0  0  0  0
 17 20  1  0  0  0  0
 18 56  1  0  0  0  0
 19 20  2  0  0  0  0
 20 31  1  0  0  0  0
 21 22  2  0  0  0  0
 21 26  1  0  0  0  0
 21 57  1  0  0  0  0
 22 23  1  0  0  0  0
 22 58  1  0  0  0  0
 23 24  2  0  0  0  0
 23 59  1  0  0  0  0
 24 25  1  0  0  0  0
 25 26  2  0  0  0  0
 25 30  1  0  0  0  0
 26 27  1  0  0  0  0
 27 28  2  0  0  0  0
 27 60  1  0  0  0  0
 28 29  1  0  0  0  0
 28 61  1  0  0  0  0
 29 30  2  0  0  0  0
 29 62  1  0  0  0  0
 30 63  1  0  0  0  0
 31 32  1  0  0  0  0
 31 37  1  0  0  0  0
 32 64  1  0  0  0  0
 32 65  1  0  0  0  0
 32 66  1  0  0  0  0
 33 34  1  0  0  0  0
 33 38  1  0  0  0  0
 33 67  1  0  0  0  0
 33 68  1  0  0  0  0
 34 35  1  0  0  0  0
 34 39  1  0  0  0  0
 35 36  1  0  0  0  0
 35 69  1  0  0  0  0
 35 70  1  0  0  0  0
 36 37  1  0  0  0  0
 36 71  1  0  0  0  0
 36 72  1  0  0  0  0
 37 38  1  0  0  0  0
 37 73  1  0  0  0  0
 38 74  1  0  0  0  0
 38 75  1  0  0  0  0
 39 42  1  0  0  0  0
 40 41  2  0  0  0  0
 40 45  1  0  0  0  0
 40 76  1  0  0  0  0
 41 42  1  0  0  0  0
 41 77  1  0  0  0  0
 42 43  2  0  0  0  0
 43 44  1  0  0  0  0
 43 78  1  0  0  0  0
 44 45  2  0  0  0  0
 44 49  1  0  0  0  0
 45 46  1  0  0  0  0
 46 47  2  0  0  0  0
 46 79  1  0  0  0  0
 47 48  1  0  0  0  0
 47 80  1  0  0  0  0
 48 49  2  0  0  0  0
 48 81  1  0  0  0  0
 49 82  1  0  0  0  0
M  END
$$$$
