OPA
 OpenBabel04041914113D

 25 26  0  0  0  0  0  0  0  0999 V2000
   13.8693   44.7259   16.7504 O   0  0  0  0  0  0  0  0  0  0  0  0
   13.8284   45.2327   18.1069 C   0  0  0  0  0  0  0  0  0  0  0  0
   12.4053   45.4141   18.5347 C   0  0  0  0  0  0  0  0  0  0  0  0
   11.2971   44.9847   17.8221 C   0  0  0  0  0  0  0  0  0  0  0  0
   11.4546   44.1910   16.5782 C   0  0  0  0  0  0  0  0  0  0  0  0
   12.9017   43.6793   16.5162 C   0  0  0  0  0  0  0  0  0  0  0  0
   11.9692   46.1181   20.0216 S   0  0  0  0  0  0  0  0  0  0  0  0
   10.3170   45.9146   19.6923 C   0  0  0  0  0  0  0  0  0  0  0  0
   10.0732   45.3604   18.4585 C   0  0  0  0  0  0  0  0  0  0  0  0
    8.6911   45.1664   17.9293 C   0  0  0  0  0  0  0  0  0  0  0  0
    7.7171   45.4286   18.6968 O   0  0  0  0  0  0  0  0  0  0  0  0
    8.5848   44.7027   16.7417 O   0  0  0  0  0  0  0  0  0  0  0  0
    9.3167   46.2695   20.5574 N   0  0  0  0  0  0  0  0  0  0  0  0
    9.3779   46.9497   21.7423 C   0  0  0  0  0  0  0  0  0  0  0  0
    8.0112   47.3812   22.3591 C   0  0  0  0  0  0  0  0  0  0  0  0
    7.0566   46.5426   22.2424 O   0  0  0  0  0  0  0  0  0  0  0  0
    7.9417   48.5396   22.8904 O   0  0  0  0  0  0  0  0  0  0  0  0
   10.3810   47.2779   22.3795 O   0  0  0  0  0  0  0  0  0  0  0  0
   14.3623   46.1968   18.1098 H   0  0  0  0  0  0  0  0  0  0  0  0
   14.3914   44.5458   18.7502 H   0  0  0  0  0  0  0  0  0  0  0  0
   11.2084   44.7957   15.6983 H   0  0  0  0  0  0  0  0  0  0  0  0
   10.7722   43.3326   16.6015 H   0  0  0  0  0  0  0  0  0  0  0  0
   13.0540   42.8853   17.2579 H   0  0  0  0  0  0  0  0  0  0  0  0
   13.0986   43.2580   15.5269 H   0  0  0  0  0  0  0  0  0  0  0  0
    8.3649   46.0565   20.2059 H   0  0  0  0  0  0  0  0  0  0  0  0
  1  6  1  0  0  0  0
  1  2  1  0  0  0  0
  2  3  1  0  0  0  0
  2 19  1  0  0  0  0
  2 20  1  0  0  0  0
  3  7  1  0  0  0  0
  3  4  2  0  0  0  0
  4  9  1  0  0  0  0
  4  5  1  0  0  0  0
  5  6  1  0  0  0  0
  5 21  1  0  0  0  0
  5 22  1  0  0  0  0
  6 23  1  0  0  0  0
  6 24  1  0  0  0  0
  7  8  1  0  0  0  0
  8  9  2  0  0  0  0
  8 13  1  0  0  0  0
  9 10  1  0  0  0  0
 10 12  2  0  0  0  0
 10 11  1  0  0  0  0
 13 14  1  0  0  0  0
 13 25  1  0  0  0  0
 14 18  2  0  0  0  0
 14 15  1  0  0  0  0
 15 17  2  0  0  0  0
 15 16  1  0  0  0  0
M  END
$$$$
