ORN
 OpenBabel04041915253D

 22 21  0  0  1  0  0  0  0  0999 V2000
   31.6861   30.1052   67.9073 N   0  3  0  0  0  0  0  0  0  0  0  0
   31.9170   28.6760   67.5199 C   0  0  2  0  0  0  0  0  0  0  0  0
   31.2777   27.8419   68.7014 C   0  0  0  0  0  0  0  0  0  0  0  0
   30.9720   28.5552   69.7044 O   0  0  0  0  0  0  0  0  0  0  0  0
   33.3984   28.4052   67.3722 C   0  0  0  0  0  0  0  0  0  0  0  0
   34.3517   28.8472   68.4997 C   0  0  0  0  0  0  0  0  0  0  0  0
   35.5704   27.9274   68.5169 C   0  0  0  0  0  0  0  0  0  0  0  0
   36.5512   28.3850   69.5211 N   0  3  0  0  0  0  0  0  0  0  0  0
   31.2306   26.5987   68.4869 O   0  0  0  0  0  0  0  0  0  0  0  0
   30.6642   30.2175   68.0497 H   0  0  0  0  0  0  0  0  0  0  0  0
   32.0607   30.2108   68.8658 H   0  0  0  0  0  0  0  0  0  0  0  0
   31.3774   28.5161   66.5866 H   0  0  0  0  0  0  0  0  0  0  0  0
   33.7519   28.8842   66.4446 H   0  0  0  0  0  0  0  0  0  0  0  0
   33.5098   27.3250   67.2427 H   0  0  0  0  0  0  0  0  0  0  0  0
   33.8492   28.7962   69.4702 H   0  0  0  0  0  0  0  0  0  0  0  0
   34.6789   29.8837   68.3349 H   0  0  0  0  0  0  0  0  0  0  0  0
   36.0803   27.9333   67.5501 H   0  0  0  0  0  0  0  0  0  0  0  0
   35.2839   26.9091   68.7903 H   0  0  0  0  0  0  0  0  0  0  0  0
   37.3726   27.7605   69.5406 H   0  0  0  0  0  0  0  0  0  0  0  0
   36.8906   29.3319   69.3191 H   0  0  0  0  0  0  0  0  0  0  0  0
   32.0382   30.7930   67.2448 H   0  0  0  0  0  0  0  0  0  0  0  0
   36.1471   28.3796   70.4670 H   0  0  0  0  0  0  0  0  0  0  0  0
  1  2  1  0  0  0  0
  1 10  1  0  0  0  0
  1 11  1  0  0  0  0
  1 21  1  0  0  0  0
  2  5  1  0  0  0  0
  2  3  1  0  0  0  0
  2 12  1  6  0  0  0
  3  9  2  0  0  0  0
  3  4  1  0  0  0  0
  5  6  1  0  0  0  0
  5 13  1  0  0  0  0
  5 14  1  0  0  0  0
  6  7  1  0  0  0  0
  6 15  1  0  0  0  0
  6 16  1  0  0  0  0
  7  8  1  0  0  0  0
  7 17  1  0  0  0  0
  7 18  1  0  0  0  0
  8 19  1  0  0  0  0
  8 20  1  0  0  0  0
  8 22  1  0  0  0  0
M  CHG  2   1   1   8   1
M  END
$$$$
