OXE
 OpenBabel04041913523D

 18 18  0  0  0  0  0  0  0  0999 V2000
   27.2374    7.5101    4.4961 C   0  0  0  0  0  0  0  0  0  0  0  0
   27.6387    6.9570    3.2700 C   0  0  0  0  0  0  0  0  0  0  0  0
   27.2468    5.6412    2.9509 C   0  0  0  0  0  0  0  0  0  0  0  0
   26.4561    4.8905    3.8200 C   0  0  0  0  0  0  0  0  0  0  0  0
   26.0572    5.4368    5.0338 C   0  0  0  0  0  0  0  0  0  0  0  0
   26.4502    6.7320    5.3714 C   0  0  0  0  0  0  0  0  0  0  0  0
   27.5935    8.9008    4.9487 C   0  0  0  0  0  0  0  0  0  0  0  0
   28.4830    7.6783    2.2517 C   0  0  0  0  0  0  0  0  0  0  0  0
   27.5595    5.1936    2.0089 H   0  0  0  0  0  0  0  0  0  0  0  0
   26.1546    3.8828    3.5493 H   0  0  0  0  0  0  0  0  0  0  0  0
   25.4413    4.8575    5.7160 H   0  0  0  0  0  0  0  0  0  0  0  0
   26.1347    7.1398    6.3302 H   0  0  0  0  0  0  0  0  0  0  0  0
   28.1764    9.4667    4.2218 H   0  0  0  0  0  0  0  0  0  0  0  0
   28.1806    8.8590    5.8699 H   0  0  0  0  0  0  0  0  0  0  0  0
   26.6790    9.4738    5.1289 H   0  0  0  0  0  0  0  0  0  0  0  0
   28.6858    8.7196    2.4983 H   0  0  0  0  0  0  0  0  0  0  0  0
   27.9720    7.6848    1.2830 H   0  0  0  0  0  0  0  0  0  0  0  0
   29.4484    7.1747    2.1492 H   0  0  0  0  0  0  0  0  0  0  0  0
  1  2  2  0  0  0  0
  1  6  1  0  0  0  0
  1  7  1  0  0  0  0
  2  3  1  0  0  0  0
  2  8  1  0  0  0  0
  3  4  2  0  0  0  0
  3  9  1  0  0  0  0
  4  5  1  0  0  0  0
  4 10  1  0  0  0  0
  5  6  2  0  0  0  0
  5 11  1  0  0  0  0
  6 12  1  0  0  0  0
  7 13  1  0  0  0  0
  7 14  1  0  0  0  0
  7 15  1  0  0  0  0
  8 16  1  0  0  0  0
  8 17  1  0  0  0  0
  8 18  1  0  0  0  0
M  END
$$$$
