PAE
 OpenBabel04041914303D

 10  9  0  0  0  0  0  0  0  0999 V2000
   73.8986   39.3274   42.5803 P   0  0  0  0  0  0  0  0  0  0  0  0
   74.5624   40.6844   42.8512 O   0  0  0  0  0  0  0  0  0  0  0  0
   72.4823   39.1693   43.1295 O   0  0  0  0  0  0  0  0  0  0  0  0
   73.9921   38.9481   41.0943 O   0  0  0  0  0  0  0  0  0  0  0  0
   74.9609   38.0762   43.3892 C   0  0  0  0  0  0  0  0  0  0  0  0
   74.7930   37.6487   44.8339 C   0  0  0  0  0  0  0  0  0  0  0  0
   74.6606   38.4882   45.7663 O   0  0  0  0  0  0  0  0  0  0  0  0
   75.0256   36.3925   45.0308 O   0  0  0  0  0  0  0  0  0  0  0  0
   75.9993   38.4056   43.2619 H   0  0  0  0  0  0  0  0  0  0  0  0
   74.8589   37.1737   42.7655 H   0  0  0  0  0  0  0  0  0  0  0  0
  1  2  2  0  0  0  0
  1  3  1  0  0  0  0
  1  4  1  0  0  0  0
  1  5  1  0  0  0  0
  5  6  1  0  0  0  0
  5  9  1  0  0  0  0
  5 10  1  0  0  0  0
  6  7  2  0  0  0  0
  6  8  1  0  0  0  0
M  END
$$$$
