PAI
 OpenBabel04041914463D

 42 41  0  0  1  0  0  0  0  0999 V2000
    7.5104  101.7455   79.8800 P   0  0  0  0  0  0  0  0  0  0  0  0
    6.4074  101.6496   80.9227 O   0  0  0  0  0  0  0  0  0  0  0  0
    7.4981  100.5377   78.9424 O   0  0  0  0  0  0  0  0  0  0  0  0
    7.1797  103.1027   78.8975 O   0  0  0  0  0  0  0  0  0  0  0  0
    8.8824  101.9710   80.4935 O   0  0  0  0  0  0  0  0  0  0  0  0
    7.1369  104.4875   79.3760 C   0  0  0  0  0  0  0  0  0  0  0  0
    6.5794  105.7019   78.3771 C   0  0  1  0  0  0  0  0  0  0  0  0
    6.8075  106.9540   79.0646 O   0  0  0  0  0  0  0  0  0  0  0  0
    7.2043  105.7921   76.9308 C   0  0  1  0  0  0  0  0  0  0  0  0
    6.9272  104.5185   76.3030 O   0  0  0  0  0  0  0  0  0  0  0  0
    6.7319  106.9387   75.8424 C   0  0  2  0  0  0  0  0  0  0  0  0
    7.0503  106.4073   74.5281 O   0  0  0  0  0  0  0  0  0  0  0  0
    7.4332  108.3587   75.8409 C   0  0  2  0  0  0  0  0  0  0  0  0
    7.1503  109.0975   77.0246 O   0  0  0  0  0  0  0  0  0  0  0  0
    7.1566  109.3783   74.6472 C   0  0  0  0  0  0  0  0  0  0  0  0
    5.7367  109.6274   74.3364 N   0  3  2  0  0  0  0  0  0  0  0  0
    5.4658  110.1309   72.8361 C   0  0  0  0  0  0  0  0  0  0  0  0
    5.1276  108.9892   71.8045 C   0  0  0  0  0  0  0  0  0  0  0  0
    4.1433  108.2977   72.0181 O   0  0  0  0  0  0  0  0  0  0  0  0
    5.9918  108.8913   70.8674 O   0  0  0  0  0  0  0  0  0  0  0  0
    5.0727  110.6598   75.2759 C   0  0  0  0  0  0  0  0  0  0  0  0
    5.6146  112.5047   75.0693 P   0  0  0  0  0  0  0  0  0  0  0  0
    4.5612  112.9800   74.0721 O   0  0  0  0  0  0  0  0  0  0  0  0
    5.5637  113.1263   76.4415 O   0  0  0  0  0  0  0  0  0  0  0  0
    7.0191  112.3439   74.4798 O   0  0  0  0  0  0  0  0  0  0  0  0
    8.1396  104.8184   79.6694 H   0  0  0  0  0  0  0  0  0  0  0  0
    6.4991  104.5397   80.2674 H   0  0  0  0  0  0  0  0  0  0  0  0
    5.4926  105.5589   78.2731 H   0  0  0  0  0  0  0  0  0  0  0  0
    6.3205  107.6454   78.5883 H   0  0  0  0  0  0  0  0  0  0  0  0
    8.2902  105.9030   77.0322 H   0  0  0  0  0  0  0  0  0  0  0  0
    7.1985  103.8051   76.9414 H   0  0  0  0  0  0  0  0  0  0  0  0
    5.6449  107.0786   75.9147 H   0  0  0  0  0  0  0  0  0  0  0  0
    6.6685  105.5025   74.4762 H   0  0  0  0  0  0  0  0  0  0  0  0
    8.5160  108.1723   75.7979 H   0  0  0  0  0  0  0  0  0  0  0  0
    7.4305  108.5745   77.7847 H   0  0  0  0  0  0  0  0  0  0  0  0
    7.6368  109.0176   73.7348 H   0  0  0  0  0  0  0  0  0  0  0  0
    7.6162  110.3300   74.9307 H   0  0  0  0  0  0  0  0  0  0  0  0
    6.3431  110.6979   72.5133 H   0  0  0  0  0  0  0  0  0  0  0  0
    4.5991  110.8045   72.8377 H   0  0  0  0  0  0  0  0  0  0  0  0
    5.2837  110.3188   76.2923 H   0  0  0  0  0  0  0  0  0  0  0  0
    3.9809  110.6076   75.1188 H   0  0  0  0  0  0  0  0  0  0  0  0
    5.1877  108.7851   74.3647 H   0  0  0  0  0  0  0  0  0  0  0  0
  1  5  2  0  0  0  0
  1  4  1  0  0  0  0
  1  3  1  0  0  0  0
  1  2  1  0  0  0  0
  4  6  1  0  0  0  0
  6  7  1  0  0  0  0
  6 26  1  0  0  0  0
  6 27  1  0  0  0  0
  7  9  1  0  0  0  0
  7  8  1  0  0  0  0
  7 28  1  6  0  0  0
  8 29  1  0  0  0  0
  9 11  1  0  0  0  0
  9 10  1  0  0  0  0
  9 30  1  1  0  0  0
 10 31  1  0  0  0  0
 11 13  1  0  0  0  0
 11 12  1  0  0  0  0
 11 32  1  1  0  0  0
 12 33  1  0  0  0  0
 13 15  1  0  0  0  0
 13 14  1  0  0  0  0
 13 34  1  1  0  0  0
 14 35  1  0  0  0  0
 15 16  1  0  0  0  0
 15 36  1  0  0  0  0
 15 37  1  0  0  0  0
 16 21  1  0  0  0  0
 16 17  1  0  0  0  0
 16 42  1  1  0  0  0
 17 18  1  0  0  0  0
 17 38  1  0  0  0  0
 17 39  1  0  0  0  0
 18 20  2  0  0  0  0
 18 19  1  0  0  0  0
 21 22  1  0  0  0  0
 21 40  1  0  0  0  0
 21 41  1  0  0  0  0
 22 25  2  0  0  0  0
 22 24  1  0  0  0  0
 22 23  1  0  0  0  0
M  CHG  1  16   1
M  END
$$$$
