PAI
 OpenBabel04041915103D

 42 41  0  0  1  0  0  0  0  0999 V2000
   39.5775   55.8065   15.4341 P   0  0  0  0  0  0  0  0  0  0  0  0
   39.6910   57.3288   15.3419 O   0  0  0  0  0  0  0  0  0  0  0  0
   40.7501   55.1412   16.1453 O   0  0  0  0  0  0  0  0  0  0  0  0
   38.3349   55.6456   16.5042 O   0  0  0  0  0  0  0  0  0  0  0  0
   39.2074   55.1451   14.1109 O   0  0  0  0  0  0  0  0  0  0  0  0
   37.2283   54.8194   16.2862 C   0  0  0  0  0  0  0  0  0  0  0  0
   37.1637   53.6010   17.2086 C   0  0  1  0  0  0  0  0  0  0  0  0
   38.3063   53.4318   18.0623 O   0  0  0  0  0  0  0  0  0  0  0  0
   35.9077   53.7018   18.0858 C   0  0  1  0  0  0  0  0  0  0  0  0
   34.6833   53.9674   17.3800 O   0  0  0  0  0  0  0  0  0  0  0  0
   35.7750   52.4442   18.9390 C   0  0  2  0  0  0  0  0  0  0  0  0
   35.6213   51.2711   18.1451 O   0  0  0  0  0  0  0  0  0  0  0  0
   34.6297   52.6549   19.8884 C   0  0  2  0  0  0  0  0  0  0  0  0
   34.8055   53.7368   20.8343 O   0  0  0  0  0  0  0  0  0  0  0  0
   34.4762   51.4242   20.7223 C   0  0  0  0  0  0  0  0  0  0  0  0
   33.0513   51.4085   21.0375 N   0  3  2  0  0  0  0  0  0  0  0  0
   32.7398   51.5705   22.4702 C   0  0  0  0  0  0  0  0  0  0  0  0
   31.3772   52.1551   22.8439 C   0  0  0  0  0  0  0  0  0  0  0  0
   30.3958   51.4878   22.6381 O   0  0  0  0  0  0  0  0  0  0  0  0
   31.4975   53.3044   23.4080 O   0  0  0  0  0  0  0  0  0  0  0  0
   32.3966   50.2489   20.5590 C   0  0  0  0  0  0  0  0  0  0  0  0
   32.2817   49.3416   19.0084 P   0  0  0  0  0  0  0  0  0  0  0  0
   32.9337   48.0528   19.5715 O   0  0  0  0  0  0  0  0  0  0  0  0
   33.0831   50.1040   17.9950 O   0  0  0  0  0  0  0  0  0  0  0  0
   30.7745   49.3897   18.8257 O   0  0  0  0  0  0  0  0  0  0  0  0
   37.1456   54.4791   15.2597 H   0  0  0  0  0  0  0  0  0  0  0  0
   36.3619   55.4543   16.4943 H   0  0  0  0  0  0  0  0  0  0  0  0
   37.0831   52.6997   16.5942 H   0  0  0  0  0  0  0  0  0  0  0  0
   38.4189   54.2458   18.5804 H   0  0  0  0  0  0  0  0  0  0  0  0
   36.0483   54.5465   18.7662 H   0  0  0  0  0  0  0  0  0  0  0  0
   34.7784   54.7905   16.8609 H   0  0  0  0  0  0  0  0  0  0  0  0
   36.6902   52.3015   19.5143 H   0  0  0  0  0  0  0  0  0  0  0  0
   34.7620   51.2835   17.6524 H   0  0  0  0  0  0  0  0  0  0  0  0
   33.7196   52.8734   19.3049 H   0  0  0  0  0  0  0  0  0  0  0  0
   34.9268   54.5582   20.3334 H   0  0  0  0  0  0  0  0  0  0  0  0
   34.9992   51.4928   21.6784 H   0  0  0  0  0  0  0  0  0  0  0  0
   34.7332   50.4965   20.2201 H   0  0  0  0  0  0  0  0  0  0  0  0
   33.5274   52.2051   22.8184 H   0  0  0  0  0  0  0  0  0  0  0  0
   32.7940   50.5652   22.8815 H   0  0  0  0  0  0  0  0  0  0  0  0
   31.3452   50.4791   20.7145 H   0  0  0  0  0  0  0  0  0  0  0  0
   32.7633   49.4617   21.2184 H   0  0  0  0  0  0  0  0  0  0  0  0
   32.5916   52.1619   20.5299 H   0  0  0  0  0  0  0  0  0  0  0  0
  1  5  2  0  0  0  0
  1  4  1  0  0  0  0
  1  3  1  0  0  0  0
  1  2  1  0  0  0  0
  4  6  1  0  0  0  0
  6  7  1  0  0  0  0
  6 26  1  0  0  0  0
  6 27  1  0  0  0  0
  7  9  1  0  0  0  0
  7  8  1  0  0  0  0
  7 28  1  6  0  0  0
  8 29  1  0  0  0  0
  9 11  1  0  0  0  0
  9 10  1  0  0  0  0
  9 30  1  1  0  0  0
 10 31  1  0  0  0  0
 11 13  1  0  0  0  0
 11 12  1  0  0  0  0
 11 32  1  1  0  0  0
 12 33  1  0  0  0  0
 13 15  1  0  0  0  0
 13 14  1  0  0  0  0
 13 34  1  6  0  0  0
 14 35  1  0  0  0  0
 15 16  1  0  0  0  0
 15 36  1  0  0  0  0
 15 37  1  0  0  0  0
 16 21  1  0  0  0  0
 16 17  1  0  0  0  0
 16 42  1  6  0  0  0
 17 18  1  0  0  0  0
 17 38  1  0  0  0  0
 17 39  1  0  0  0  0
 18 20  2  0  0  0  0
 18 19  1  0  0  0  0
 21 22  1  0  0  0  0
 21 40  1  0  0  0  0
 21 41  1  0  0  0  0
 22 25  2  0  0  0  0
 22 24  1  0  0  0  0
 22 23  1  0  0  0  0
M  CHG  1  16   1
M  END
$$$$
