PAP
 OpenBabel04041913553D

 42 44  0  0  1  0  0  0  0  0999 V2000
   37.1238   -2.6213   23.1322 P   0  0  0  0  0  0  0  0  0  0  0  0
   35.6051   -2.8588   23.0392 O   0  0  0  0  0  0  0  0  0  0  0  0
   37.4529   -1.6628   24.2809 O   0  0  0  0  0  0  0  0  0  0  0  0
   37.7153   -2.1939   21.7956 O   0  0  0  0  0  0  0  0  0  0  0  0
   38.8673   -5.0881   23.1380 P   0  0  2  0  0  0  0  0  0  0  0  0
   39.1125   -5.9976   24.3428 O   0  0  0  0  0  0  0  0  0  0  0  0
   40.0982   -4.4791   22.4866 O   0  0  0  0  0  0  0  0  0  0  0  0
   37.7442   -4.0380   23.5662 O   0  0  0  0  0  0  0  0  0  0  0  0
   38.0788   -6.0026   22.0463 O   0  0  0  0  0  0  0  0  0  0  0  0
   37.6756   -5.4512   20.8102 C   0  0  0  0  0  0  0  0  0  0  0  0
   37.4743   -6.6007   19.8015 C   0  0  1  0  0  0  0  0  0  0  0  0
   36.7231   -6.0931   18.6371 O   0  0  0  0  0  0  0  0  0  0  0  0
   38.8083   -7.1921   19.2808 C   0  0  1  0  0  0  0  0  0  0  0  0
   38.6760   -8.5713   18.8934 O   0  0  0  0  0  0  0  0  0  0  0  0
   39.2426   -9.7786   19.8557 P   0  0  0  0  0  0  0  0  0  0  0  0
   37.9918  -10.3759   20.4796 O   0  0  0  0  0  0  0  0  0  0  0  0
   39.8811  -10.7162   18.8203 O   0  0  0  0  0  0  0  0  0  0  0  0
   40.2625   -9.1763   20.7865 O   0  0  0  0  0  0  0  0  0  0  0  0
   38.9746   -6.4270   17.9547 C   0  0  1  0  0  0  0  0  0  0  0  0
   39.7901   -7.1132   16.9842 O   0  0  0  0  0  0  0  0  0  0  0  0
   37.5227   -6.3895   17.4910 C   0  0  2  0  0  0  0  0  0  0  0  0
   37.1515   -5.5141   16.3892 N   0  3  0  0  0  0  0  0  0  0  0  0
   36.2860   -5.8982   15.3821 C   0  0  0  0  0  0  0  0  0  0  0  0
   36.0850   -4.9547   14.4821 N   0  0  0  0  0  0  0  0  0  0  0  0
   36.8232   -3.8874   14.9584 C   0  0  0  0  0  0  0  0  0  0  0  0
   36.9873   -2.5731   14.4739 C   0  0  0  0  0  0  0  0  0  0  0  0
   36.3311   -2.0977   13.3495 N   0  0  0  0  0  0  0  0  0  0  0  0
   37.7973   -1.7235   15.1383 N   0  0  0  0  0  0  0  0  0  0  0  0
   38.3879   -2.1841   16.2706 C   0  0  0  0  0  0  0  0  0  0  0  0
   38.3300   -3.4144   16.8026 N   0  0  0  0  0  0  0  0  0  0  0  0
   37.5094   -4.2224   16.1186 C   0  0  0  0  0  0  0  0  0  0  0  0
   38.4026   -4.7261   20.4289 H   0  0  0  0  0  0  0  0  0  0  0  0
   36.7271   -4.9213   20.9507 H   0  0  0  0  0  0  0  0  0  0  0  0
   36.8547   -7.3874   20.2454 H   0  0  0  0  0  0  0  0  0  0  0  0
   39.6573   -7.0446   19.9489 H   0  0  0  0  0  0  0  0  0  0  0  0
   39.3797   -5.4269   18.1349 H   0  0  0  0  0  0  0  0  0  0  0  0
   39.7329   -8.0562   17.2774 H   0  0  0  0  0  0  0  0  0  0  0  0
   37.2384   -7.3960   17.1518 H   0  0  0  0  0  0  0  0  0  0  0  0
   35.8366   -6.8824   15.3788 H   0  0  0  0  0  0  0  0  0  0  0  0
   36.6429   -1.2051   12.9992 H   0  0  0  0  0  0  0  0  0  0  0  0
   35.8863   -2.7897   12.7739 H   0  0  0  0  0  0  0  0  0  0  0  0
   39.0000   -1.4689   16.8122 H   0  0  0  0  0  0  0  0  0  0  0  0
  1  8  1  0  0  0  0
  1  4  2  0  0  0  0
  1  3  1  0  0  0  0
  1  2  1  0  0  0  0
  5  8  1  1  0  0  0
  5  9  1  0  0  0  0
  5  7  2  0  0  0  0
  5  6  1  0  0  0  0
  9 10  1  0  0  0  0
 10 11  1  0  0  0  0
 10 32  1  0  0  0  0
 10 33  1  0  0  0  0
 11 13  1  0  0  0  0
 11 12  1  0  0  0  0
 11 34  1  1  0  0  0
 12 21  1  0  0  0  0
 13 19  1  0  0  0  0
 13 14  1  0  0  0  0
 13 35  1  1  0  0  0
 14 15  1  0  0  0  0
 15 18  2  0  0  0  0
 15 17  1  0  0  0  0
 15 16  1  0  0  0  0
 19 21  1  0  0  0  0
 19 20  1  0  0  0  0
 19 36  1  1  0  0  0
 20 37  1  0  0  0  0
 21 22  1  0  0  0  0
 21 38  1  6  0  0  0
 22 31  1  0  0  0  0
 22 23  2  0  0  0  0
 23 24  1  0  0  0  0
 23 39  1  0  0  0  0
 24 25  1  0  0  0  0
 25 31  2  0  0  0  0
 25 26  1  0  0  0  0
 26 28  2  0  0  0  0
 26 27  1  0  0  0  0
 27 40  1  0  0  0  0
 27 41  1  0  0  0  0
 28 29  1  0  0  0  0
 29 30  2  0  0  0  0
 29 42  1  0  0  0  0
 30 31  1  0  0  0  0
M  CHG  1  22   1
M  END
$$$$
