PEA
 OpenBabel04041917103D

 21 21  0  0  0  0  0  0  0  0999 V2000
   93.9486   77.9018  -16.7510 C   0  0  0  0  0  0  0  0  0  0  0  0
   94.8384   78.2092  -17.7921 C   0  0  0  0  0  0  0  0  0  0  0  0
   94.6393   77.7001  -19.0764 C   0  0  0  0  0  0  0  0  0  0  0  0
   93.5660   76.8540  -19.3339 C   0  0  0  0  0  0  0  0  0  0  0  0
   92.6919   76.5127  -18.3058 C   0  0  0  0  0  0  0  0  0  0  0  0
   92.8819   77.0304  -17.0224 C   0  0  0  0  0  0  0  0  0  0  0  0
   94.1469   78.4192  -15.3466 C   0  0  0  0  0  0  0  0  0  0  0  0
   94.6569   79.8593  -15.2864 C   0  0  0  0  0  0  0  0  0  0  0  0
   94.8632   80.2781  -13.8759 N   0  3  0  0  0  0  0  0  0  0  0  0
   95.7111   78.8383  -17.6410 H   0  0  0  0  0  0  0  0  0  0  0  0
   95.3297   77.9555  -19.8776 H   0  0  0  0  0  0  0  0  0  0  0  0
   93.4191   76.4501  -20.3331 H   0  0  0  0  0  0  0  0  0  0  0  0
   91.8641   75.8356  -18.5058 H   0  0  0  0  0  0  0  0  0  0  0  0
   92.1869   76.7330  -16.2393 H   0  0  0  0  0  0  0  0  0  0  0  0
   94.8415   77.7473  -14.8280 H   0  0  0  0  0  0  0  0  0  0  0  0
   93.1925   78.3688  -14.8033 H   0  0  0  0  0  0  0  0  0  0  0  0
   93.9436   80.5623  -15.7282 H   0  0  0  0  0  0  0  0  0  0  0  0
   95.6287   79.9804  -15.7723 H   0  0  0  0  0  0  0  0  0  0  0  0
   95.2189   81.2428  -13.8334 H   0  0  0  0  0  0  0  0  0  0  0  0
   93.9870   80.2507  -13.3350 H   0  0  0  0  0  0  0  0  0  0  0  0
   95.5503   79.6788  -13.3979 H   0  0  0  0  0  0  0  0  0  0  0  0
  1  2  2  0  0  0  0
  1  6  1  0  0  0  0
  1  7  1  0  0  0  0
  2  3  1  0  0  0  0
  2 10  1  0  0  0  0
  3  4  2  0  0  0  0
  3 11  1  0  0  0  0
  4  5  1  0  0  0  0
  4 12  1  0  0  0  0
  5  6  2  0  0  0  0
  5 13  1  0  0  0  0
  6 14  1  0  0  0  0
  7  8  1  0  0  0  0
  7 15  1  0  0  0  0
  7 16  1  0  0  0  0
  8  9  1  0  0  0  0
  8 17  1  0  0  0  0
  8 18  1  0  0  0  0
  9 19  1  0  0  0  0
  9 20  1  0  0  0  0
  9 21  1  0  0  0  0
M  CHG  1   9   1
M  END
$$$$
