PGA
 OpenBabel04041916203D

 11 10  0  0  0  0  0  0  0  0999 V2000
   31.8944   69.3941   13.7210 P   0  0  0  0  0  0  0  0  0  0  0  0
   31.1727   70.2435   12.5257 O   0  0  0  0  0  0  0  0  0  0  0  0
   31.1832   69.8427   14.9809 O   0  0  0  0  0  0  0  0  0  0  0  0
   31.6740   67.9208   13.3722 O   0  0  0  0  0  0  0  0  0  0  0  0
   33.3738   69.8218   13.6526 O   0  0  0  0  0  0  0  0  0  0  0  0
   29.7472   70.1745   12.5035 C   0  0  0  0  0  0  0  0  0  0  0  0
   29.1916   70.4424   11.0987 C   0  0  0  0  0  0  0  0  0  0  0  0
   29.8649   70.0822   10.0880 O   0  0  0  0  0  0  0  0  0  0  0  0
   28.0402   71.0057   11.0656 O   0  0  0  0  0  0  0  0  0  0  0  0
   29.3583   70.9231   13.2140 H   0  0  0  0  0  0  0  0  0  0  0  0
   29.3982   69.1868   12.8368 H   0  0  0  0  0  0  0  0  0  0  0  0
  1  2  1  0  0  0  0
  1  3  2  0  0  0  0
  1  4  1  0  0  0  0
  1  5  1  0  0  0  0
  2  6  1  0  0  0  0
  6  7  1  0  0  0  0
  6 10  1  0  0  0  0
  6 11  1  0  0  0  0
  7  8  2  0  0  0  0
  7  9  1  0  0  0  0
M  END
$$$$
