PGA
 OpenBabel04041915363D

 11 10  0  0  0  0  0  0  0  0999 V2000
   22.0772   -1.6989    6.1245 P   0  0  0  0  0  0  0  0  0  0  0  0
   21.9982   -2.1360    7.7004 O   0  0  0  0  0  0  0  0  0  0  0  0
   21.7290   -2.9703    5.3496 O   0  0  0  0  0  0  0  0  0  0  0  0
   23.5171   -1.2546    5.9480 O   0  0  0  0  0  0  0  0  0  0  0  0
   21.0553   -0.5809    5.9511 O   0  0  0  0  0  0  0  0  0  0  0  0
   20.7596   -2.2424    8.3875 C   0  0  0  0  0  0  0  0  0  0  0  0
   20.9761   -2.8495    9.8023 C   0  0  0  0  0  0  0  0  0  0  0  0
   22.0066   -2.5062   10.4656 O   0  0  0  0  0  0  0  0  0  0  0  0
   20.0369   -3.5985   10.2420 O   0  0  0  0  0  0  0  0  0  0  0  0
   20.0476   -2.8548    7.8181 H   0  0  0  0  0  0  0  0  0  0  0  0
   20.3242   -1.2447    8.5130 H   0  0  0  0  0  0  0  0  0  0  0  0
  1  2  1  0  0  0  0
  1  3  2  0  0  0  0
  1  4  1  0  0  0  0
  1  5  1  0  0  0  0
  2  6  1  0  0  0  0
  6  7  1  0  0  0  0
  6 10  1  0  0  0  0
  6 11  1  0  0  0  0
  7  8  2  0  0  0  0
  7  9  1  0  0  0  0
M  END
$$$$
