PGA
 OpenBabel04041916493D

 11 10  0  0  0  0  0  0  0  0999 V2000
   84.6742  -12.3148   66.4432 P   0  0  0  0  0  0  0  0  0  0  0  0
   85.8706  -13.1850   65.7355 O   0  0  0  0  0  0  0  0  0  0  0  0
   85.0917  -12.1883   67.9062 O   0  0  0  0  0  0  0  0  0  0  0  0
   84.6905  -10.9840   65.6927 O   0  0  0  0  0  0  0  0  0  0  0  0
   83.3973  -13.1234   66.2394 O   0  0  0  0  0  0  0  0  0  0  0  0
   86.1545  -14.4807   66.2714 C   0  0  0  0  0  0  0  0  0  0  0  0
   86.7090  -15.4429   65.1919 C   0  0  0  0  0  0  0  0  0  0  0  0
   86.0218  -15.6867   64.1522 O   0  0  0  0  0  0  0  0  0  0  0  0
   87.8266  -16.0068   65.4931 O   0  0  0  0  0  0  0  0  0  0  0  0
   85.2585  -14.9269   66.7156 H   0  0  0  0  0  0  0  0  0  0  0  0
   86.8970  -14.3571   67.0739 H   0  0  0  0  0  0  0  0  0  0  0  0
  1  2  1  0  0  0  0
  1  3  2  0  0  0  0
  1  4  1  0  0  0  0
  1  5  1  0  0  0  0
  2  6  1  0  0  0  0
  6  7  1  0  0  0  0
  6 10  1  0  0  0  0
  6 11  1  0  0  0  0
  7  8  2  0  0  0  0
  7  9  1  0  0  0  0
M  END
$$$$
