PGA
 OpenBabel04041913573D

 11 10  0  0  0  0  0  0  0  0999 V2000
    7.9684   -1.7331   18.4861 P   0  0  0  0  0  0  0  0  0  0  0  0
    8.9414   -0.5785   18.6961 O   0  0  0  0  0  0  0  0  0  0  0  0
    8.4521   -3.0495   19.0955 O   0  0  0  0  0  0  0  0  0  0  0  0
    6.5221   -1.3895   18.8423 O   0  0  0  0  0  0  0  0  0  0  0  0
    7.9350   -1.9943   16.8712 O   0  0  0  0  0  0  0  0  0  0  0  0
    9.1517   -2.3921   16.2310 C   0  0  0  0  0  0  0  0  0  0  0  0
    8.9976   -2.4948   14.6941 C   0  0  0  0  0  0  0  0  0  0  0  0
   10.0341   -2.1723   14.0155 O   0  0  0  0  0  0  0  0  0  0  0  0
    7.9193   -2.9604   14.2077 O   0  0  0  0  0  0  0  0  0  0  0  0
    9.4602   -3.3735   16.6130 H   0  0  0  0  0  0  0  0  0  0  0  0
    9.9382   -1.6660   16.4678 H   0  0  0  0  0  0  0  0  0  0  0  0
  1  2  2  0  0  0  0
  1  3  1  0  0  0  0
  1  4  1  0  0  0  0
  1  5  1  0  0  0  0
  5  6  1  0  0  0  0
  6  7  1  0  0  0  0
  6 10  1  0  0  0  0
  6 11  1  0  0  0  0
  7  8  2  0  0  0  0
  7  9  1  0  0  0  0
M  END
$$$$
