PGH
 OpenBabel04041915063D

 14 13  0  0  0  0  0  0  0  0999 V2000
   86.0452  -15.5789   65.3665 C   0  0  0  0  0  0  0  0  0  0  0  0
   85.6720  -14.5650   66.4687 C   0  0  0  0  0  0  0  0  0  0  0  0
   87.3058  -16.1203   65.5597 N   0  0  0  0  0  0  0  0  0  0  0  0
   87.7736  -17.0951   64.6569 O   0  0  0  0  0  0  0  0  0  0  0  0
   85.3525  -15.8673   64.4361 O   0  0  0  0  0  0  0  0  0  0  0  0
   84.9121  -13.5567   65.8589 O   0  0  0  0  0  0  0  0  0  0  0  0
   82.6801  -12.9540   66.6818 O   0  0  0  0  0  0  0  0  0  0  0  0
   84.7185  -12.3985   68.1260 O   0  0  0  0  0  0  0  0  0  0  0  0
   84.2667  -11.1650   65.9106 O   0  0  0  0  0  0  0  0  0  0  0  0
   84.0922  -12.4442   66.7217 P   0  0  0  0  0  0  0  0  0  0  0  0
   86.5861  -14.1247   66.8851 H   0  0  0  0  0  0  0  0  0  0  0  0
   85.1184  -15.1145   67.2378 H   0  0  0  0  0  0  0  0  0  0  0  0
   87.8732  -15.8803   66.3642 H   0  0  0  0  0  0  0  0  0  0  0  0
   87.7477  -16.6207   63.7997 H   0  0  0  0  0  0  0  0  0  0  0  0
  1  5  2  0  0  0  0
  1  3  1  0  0  0  0
  1  2  1  0  0  0  0
  2  6  1  0  0  0  0
  2 11  1  0  0  0  0
  2 12  1  0  0  0  0
  3  4  1  0  0  0  0
  3 13  1  0  0  0  0
  4 14  1  0  0  0  0
  6 10  1  0  0  0  0
  7 10  2  0  0  0  0
  8 10  1  0  0  0  0
  9 10  1  0  0  0  0
M  END
$$$$
