PHP
 OpenBabel04041914583D

105108  0  0  1  0  0  0  0  0999 V2000
  -11.8562   14.3095   32.9920 C   0  0  0  0  0  0  0  0  0  0  0  0
  -12.5515   15.2407   33.2012 O   0  0  0  0  0  0  0  0  0  0  0  0
  -12.1287   13.0110   33.2841 O   0  0  0  0  0  0  0  0  0  0  0  0
  -13.5279   12.7027   33.3457 C   0  0  0  0  0  0  0  0  0  0  0  0
  -13.6785   11.2048   33.2439 C   0  0  0  0  0  0  0  0  0  0  0  0
  -12.8778   10.4594   32.3684 C   0  0  0  0  0  0  0  0  0  0  0  0
  -14.6363   10.5472   34.0165 C   0  0  0  0  0  0  0  0  0  0  0  0
  -13.0210    9.0824   32.2750 C   0  0  0  0  0  0  0  0  0  0  0  0
  -14.7745    9.1692   33.9283 C   0  0  0  0  0  0  0  0  0  0  0  0
  -13.9696    8.4404   33.0604 C   0  0  0  0  0  0  0  0  0  0  0  0
  -10.6215   14.4013   32.4136 N   0  0  0  0  0  0  0  0  0  0  0  0
  -10.1250   15.6797   31.9378 C   0  0  1  0  0  0  0  0  0  0  0  0
   -8.8297   16.0129   32.6860 C   0  0  0  0  0  0  0  0  0  0  0  0
   -8.1315   17.1888   32.0381 C   0  0  0  0  0  0  0  0  0  0  0  0
   -9.1089   16.5083   34.1030 C   0  0  0  0  0  0  0  0  0  0  0  0
   -9.9021   15.3595   30.4598 C   0  0  0  0  0  0  0  0  0  0  0  0
   -9.1587   14.4524   30.0987 O   0  0  0  0  0  0  0  0  0  0  0  0
  -10.7059   16.0360   29.6059 N   0  0  0  0  0  0  0  0  0  0  0  0
  -10.6606   15.9141   28.1368 C   0  0  1  0  0  0  0  0  0  0  0  0
  -12.0596   15.6293   27.5872 C   0  0  0  0  0  0  0  0  0  0  0  0
  -12.6906   14.4434   28.2603 C   0  0  0  0  0  0  0  0  0  0  0  0
  -13.8148   14.6181   29.0652 C   0  0  0  0  0  0  0  0  0  0  0  0
  -12.1084   13.1774   28.1541 C   0  0  0  0  0  0  0  0  0  0  0  0
  -14.3279   13.5423   29.7721 C   0  0  0  0  0  0  0  0  0  0  0  0
  -12.6225   12.1034   28.8654 C   0  0  0  0  0  0  0  0  0  0  0  0
  -13.7332   12.2940   29.6692 C   0  0  0  0  0  0  0  0  0  0  0  0
  -10.1456   17.6081   27.5978 P   0  0  2  0  0  0  0  0  0  0  0  0
  -10.3219   18.5332   28.7813 O   0  0  0  0  0  0  0  0  0  0  0  0
  -10.8783   18.0434   26.3445 O   0  0  0  0  0  0  0  0  0  0  0  0
   -8.3602   17.3596   25.6884 N   0  0  0  0  0  0  0  0  0  0  0  0
   -8.3791   17.3431   27.1596 C   0  0  1  0  0  0  0  0  0  0  0  0
   -7.5120   18.4872   27.6646 C   0  0  0  0  0  0  0  0  0  0  0  0
   -6.0760   18.2104   27.3115 C   0  0  0  0  0  0  0  0  0  0  0  0
   -5.4636   18.8826   26.2544 C   0  0  0  0  0  0  0  0  0  0  0  0
   -5.3900   17.1868   27.9650 C   0  0  0  0  0  0  0  0  0  0  0  0
   -4.1925   18.5084   25.8408 C   0  0  0  0  0  0  0  0  0  0  0  0
   -4.1219   16.8145   27.5456 C   0  0  0  0  0  0  0  0  0  0  0  0
   -3.5262   17.4736   26.4783 C   0  0  0  0  0  0  0  0  0  0  0  0
   -6.6173   16.5911   23.0865 N   0  0  0  0  0  0  0  0  0  0  0  0
   -8.0372   16.4918   23.4377 C   0  0  1  0  0  0  0  0  0  0  0  0
   -8.7012   15.2425   22.8453 C   0  0  0  0  0  0  0  0  0  0  0  0
  -10.1981   15.3223   23.1252 C   0  0  0  0  0  0  0  0  0  0  0  0
   -8.5005   15.1441   21.3456 C   0  0  0  0  0  0  0  0  0  0  0  0
   -7.9962   16.2971   24.9399 C   0  0  0  0  0  0  0  0  0  0  0  0
   -7.5418   15.2599   25.4266 O   0  0  0  0  0  0  0  0  0  0  0  0
   -3.9712   16.8763   21.6751 C   0  0  0  0  0  0  0  0  0  0  0  0
   -2.6100   16.8510   22.3404 C   0  0  0  0  0  0  0  0  0  0  0  0
   -2.0192   18.0131   22.8475 C   0  0  0  0  0  0  0  0  0  0  0  0
   -0.7650   17.9765   23.4625 C   0  0  0  0  0  0  0  0  0  0  0  0
   -0.6358   15.6168   23.0585 C   0  0  0  0  0  0  0  0  0  0  0  0
   -1.8911   15.6577   22.4455 C   0  0  0  0  0  0  0  0  0  0  0  0
   -0.0723   16.7791   23.5659 C   0  0  0  0  0  0  0  0  0  0  0  0
   -4.7985   17.8511   22.3485 O   0  0  0  0  0  0  0  0  0  0  0  0
   -6.1393   17.7553   22.5556 C   0  0  0  0  0  0  0  0  0  0  0  0
   -6.8612   18.6811   22.3013 O   0  0  0  0  0  0  0  0  0  0  0  0
  -14.0658   13.1602   32.5111 H   0  0  0  0  0  0  0  0  0  0  0  0
  -13.9715   13.0335   34.2906 H   0  0  0  0  0  0  0  0  0  0  0  0
  -12.1358   10.9667   31.7566 H   0  0  0  0  0  0  0  0  0  0  0  0
  -15.2649   11.1115   34.6996 H   0  0  0  0  0  0  0  0  0  0  0  0
  -12.3947    8.5133   31.5969 H   0  0  0  0  0  0  0  0  0  0  0  0
  -15.5126    8.6622   34.5376 H   0  0  0  0  0  0  0  0  0  0  0  0
  -14.0826    7.3676   32.9971 H   0  0  0  0  0  0  0  0  0  0  0  0
  -10.0778   13.5798   32.2073 H   0  0  0  0  0  0  0  0  0  0  0  0
  -10.8557   16.4887   32.0759 H   0  0  0  0  0  0  0  0  0  0  0  0
   -8.1662   15.1340   32.7081 H   0  0  0  0  0  0  0  0  0  0  0  0
   -7.2095   17.4123   32.5841 H   0  0  0  0  0  0  0  0  0  0  0  0
   -8.7919   18.0630   32.0889 H   0  0  0  0  0  0  0  0  0  0  0  0
   -7.8987   16.9671   31.0008 H   0  0  0  0  0  0  0  0  0  0  0  0
   -9.6096   15.7457   34.6938 H   0  0  0  0  0  0  0  0  0  0  0  0
   -9.7444   17.4052   34.0593 H   0  0  0  0  0  0  0  0  0  0  0  0
   -8.1677   16.7891   34.5971 H   0  0  0  0  0  0  0  0  0  0  0  0
  -11.2788   16.7971   29.9585 H   0  0  0  0  0  0  0  0  0  0  0  0
   -9.9585   15.1220   27.8379 H   0  0  0  0  0  0  0  0  0  0  0  0
  -12.0032   15.4439   26.5077 H   0  0  0  0  0  0  0  0  0  0  0  0
  -12.6949   16.5142   27.7388 H   0  0  0  0  0  0  0  0  0  0  0  0
  -14.2831   15.5948   29.1524 H   0  0  0  0  0  0  0  0  0  0  0  0
  -11.2353   13.0353   27.5265 H   0  0  0  0  0  0  0  0  0  0  0  0
  -15.1922   13.6776   30.4093 H   0  0  0  0  0  0  0  0  0  0  0  0
  -12.1630   11.1245   28.7932 H   0  0  0  0  0  0  0  0  0  0  0  0
  -14.1409   11.4616   30.2294 H   0  0  0  0  0  0  0  0  0  0  0  0
   -8.7553   18.1870   25.2517 H   0  0  0  0  0  0  0  0  0  0  0  0
   -7.9978   16.3781   27.5303 H   0  0  0  0  0  0  0  0  0  0  0  0
   -7.6113   18.5883   28.7500 H   0  0  0  0  0  0  0  0  0  0  0  0
   -7.8324   19.4315   27.2048 H   0  0  0  0  0  0  0  0  0  0  0  0
   -5.9838   19.6860   25.7425 H   0  0  0  0  0  0  0  0  0  0  0  0
   -5.8601   16.6618   28.7912 H   0  0  0  0  0  0  0  0  0  0  0  0
   -3.7217   19.0225   25.0138 H   0  0  0  0  0  0  0  0  0  0  0  0
   -3.6005   16.0106   28.0483 H   0  0  0  0  0  0  0  0  0  0  0  0
   -2.5399   17.1801   26.1490 H   0  0  0  0  0  0  0  0  0  0  0  0
   -6.0064   15.8460   23.3827 H   0  0  0  0  0  0  0  0  0  0  0  0
   -8.5981   17.3860   23.1278 H   0  0  0  0  0  0  0  0  0  0  0  0
   -8.2901   14.3361   23.3104 H   0  0  0  0  0  0  0  0  0  0  0  0
  -10.7101   14.4470   22.7184 H   0  0  0  0  0  0  0  0  0  0  0  0
  -10.6148   16.2248   22.6591 H   0  0  0  0  0  0  0  0  0  0  0  0
  -10.3761   15.3717   24.2026 H   0  0  0  0  0  0  0  0  0  0  0  0
   -7.4357   15.0723   21.1152 H   0  0  0  0  0  0  0  0  0  0  0  0
   -8.9173   16.0300   20.8564 H   0  0  0  0  0  0  0  0  0  0  0  0
   -9.0078   14.2531   20.9593 H   0  0  0  0  0  0  0  0  0  0  0  0
   -3.8405   17.1847   20.6228 H   0  0  0  0  0  0  0  0  0  0  0  0
   -4.4248   15.8867   21.6991 H   0  0  0  0  0  0  0  0  0  0  0  0
   -2.5491   18.9590   22.7821 H   0  0  0  0  0  0  0  0  0  0  0  0
   -0.3326   18.8873   23.8597 H   0  0  0  0  0  0  0  0  0  0  0  0
   -0.1002   14.6763   23.1381 H   0  0  0  0  0  0  0  0  0  0  0  0
   -2.3145   14.7376   22.0567 H   0  0  0  0  0  0  0  0  0  0  0  0
    0.9033   16.7550   24.0398 H   0  0  0  0  0  0  0  0  0  0  0  0
  1 11  1  0  0  0  0
  1  3  1  0  0  0  0
  1  2  2  0  0  0  0
  3  4  1  0  0  0  0
  4  5  1  0  0  0  0
  4 56  1  0  0  0  0
  4 57  1  0  0  0  0
  5  7  2  0  0  0  0
  5  6  1  0  0  0  0
  6  8  2  0  0  0  0
  6 58  1  0  0  0  0
  7  9  1  0  0  0  0
  7 59  1  0  0  0  0
  8 10  1  0  0  0  0
  8 60  1  0  0  0  0
  9 10  2  0  0  0  0
  9 61  1  0  0  0  0
 10 62  1  0  0  0  0
 11 12  1  0  0  0  0
 11 63  1  0  0  0  0
 12 16  1  0  0  0  0
 12 13  1  0  0  0  0
 12 64  1  1  0  0  0
 13 15  1  0  0  0  0
 13 14  1  0  0  0  0
 13 65  1  0  0  0  0
 14 66  1  0  0  0  0
 14 67  1  0  0  0  0
 14 68  1  0  0  0  0
 15 69  1  0  0  0  0
 15 70  1  0  0  0  0
 15 71  1  0  0  0  0
 16 18  1  0  0  0  0
 16 17  2  0  0  0  0
 18 19  1  0  0  0  0
 18 72  1  0  0  0  0
 19 27  1  0  0  0  0
 19 20  1  0  0  0  0
 19 73  1  6  0  0  0
 20 21  1  0  0  0  0
 20 74  1  0  0  0  0
 20 75  1  0  0  0  0
 21 23  2  0  0  0  0
 21 22  1  0  0  0  0
 22 24  2  0  0  0  0
 22 76  1  0  0  0  0
 23 25  1  0  0  0  0
 23 77  1  0  0  0  0
 24 26  1  0  0  0  0
 24 78  1  0  0  0  0
 25 26  2  0  0  0  0
 25 79  1  0  0  0  0
 26 80  1  0  0  0  0
 27 31  1  0  0  0  0
 27 29  2  6  0  0  0
 27 28  1  0  0  0  0
 30 31  1  0  0  0  0
 30 44  1  0  0  0  0
 30 81  1  0  0  0  0
 31 32  1  0  0  0  0
 31 82  1  1  0  0  0
 32 33  1  0  0  0  0
 32 83  1  0  0  0  0
 32 84  1  0  0  0  0
 33 35  2  0  0  0  0
 33 34  1  0  0  0  0
 34 36  2  0  0  0  0
 34 85  1  0  0  0  0
 35 37  1  0  0  0  0
 35 86  1  0  0  0  0
 36 38  1  0  0  0  0
 36 87  1  0  0  0  0
 37 38  2  0  0  0  0
 37 88  1  0  0  0  0
 38 89  1  0  0  0  0
 39 40  1  0  0  0  0
 39 54  1  0  0  0  0
 39 90  1  0  0  0  0
 40 44  1  0  0  0  0
 40 41  1  0  0  0  0
 40 91  1  6  0  0  0
 41 43  1  0  0  0  0
 41 42  1  0  0  0  0
 41 92  1  0  0  0  0
 42 93  1  0  0  0  0
 42 94  1  0  0  0  0
 42 95  1  0  0  0  0
 43 96  1  0  0  0  0
 43 97  1  0  0  0  0
 43 98  1  0  0  0  0
 44 45  2  0  0  0  0
 46 53  1  0  0  0  0
 46 47  1  0  0  0  0
 46 99  1  0  0  0  0
 46100  1  0  0  0  0
 47 51  2  0  0  0  0
 47 48  1  0  0  0  0
 48 49  2  0  0  0  0
 48101  1  0  0  0  0
 49 52  1  0  0  0  0
 49102  1  0  0  0  0
 50 52  2  0  0  0  0
 50 51  1  0  0  0  0
 50103  1  0  0  0  0
 51104  1  0  0  0  0
 52105  1  0  0  0  0
 53 54  1  0  0  0  0
 54 55  2  0  0  0  0
M  END
$$$$
