PI6
 OpenBabel04041915483D

 92 94  0  0  1  0  0  0  0  0999 V2000
    3.8349   -0.1349   12.1606 O   0  0  0  0  0  0  0  0  0  0  0  0
    3.8567    1.0284   12.3698 C   0  0  0  0  0  0  0  0  0  0  0  0
    2.8534    1.9299   12.1639 O   0  0  0  0  0  0  0  0  0  0  0  0
    1.6226    1.3609   11.6574 C   0  0  0  0  0  0  0  0  0  0  0  0
    1.0586    0.3544   12.6551 C   0  0  0  0  0  0  0  0  0  0  0  0
    0.6434    2.5187   11.5730 C   0  0  0  0  0  0  0  0  0  0  0  0
    1.8086    0.7497   10.2749 C   0  0  0  0  0  0  0  0  0  0  0  0
    4.8301   -0.3448   15.1348 C   0  0  0  0  0  0  0  0  0  0  0  0
    4.8907    1.6486   13.0125 N   0  0  0  0  0  0  0  0  0  0  0  0
    6.0782    0.9029   13.3807 C   0  0  1  0  0  0  0  0  0  0  0  0
    7.3350    1.7341   13.1624 C   0  0  0  0  0  0  0  0  0  0  0  0
    7.5126    2.0861   11.7274 C   0  0  0  0  0  0  0  0  0  0  0  0
    7.8581    1.0958   10.8127 C   0  0  0  0  0  0  0  0  0  0  0  0
    7.2777    3.3905   11.2994 C   0  0  0  0  0  0  0  0  0  0  0  0
    7.9385    1.4053    9.4640 C   0  0  0  0  0  0  0  0  0  0  0  0
    7.3609    3.7006    9.9511 C   0  0  0  0  0  0  0  0  0  0  0  0
    7.6855    2.7043    9.0360 C   0  0  0  0  0  0  0  0  0  0  0  0
    6.0224    0.5453   14.8551 C   0  0  2  0  0  0  0  0  0  0  0  0
    7.2184   -0.1526   15.2000 O   0  0  0  0  0  0  0  0  0  0  0  0
    4.9480   -0.7707   16.5701 N   0  3  0  0  0  0  0  0  0  0  0  0
    4.7132   -2.2196   16.8751 C   0  0  2  0  0  0  0  0  0  0  0  0
    5.7296   -3.1771   16.2396 C   0  0  0  0  0  0  0  0  0  0  0  0
    5.9453   -3.2083   15.0458 O   0  0  0  0  0  0  0  0  0  0  0  0
    3.2966   -2.6080   16.4845 C   0  0  0  0  0  0  0  0  0  0  0  0
    3.0875   -4.0905   16.5932 C   0  0  0  0  0  0  0  0  0  0  0  0
    3.0366   -4.7070   17.8378 C   0  0  0  0  0  0  0  0  0  0  0  0
    3.0604   -4.8755   15.4329 C   0  0  0  0  0  0  0  0  0  0  0  0
    2.9906   -6.0888   17.9154 C   0  0  0  0  0  0  0  0  0  0  0  0
    3.0196   -6.2645   15.5155 C   0  0  0  0  0  0  0  0  0  0  0  0
    3.0096   -6.8753   16.7597 C   0  0  0  0  0  0  0  0  0  0  0  0
    3.0239   -8.2437   16.7722 O   0  0  0  0  0  0  0  0  0  0  0  0
    6.3389   -3.9894   17.1478 N   0  0  0  0  0  0  0  0  0  0  0  0
    7.2398   -5.0998   16.8091 C   0  0  2  0  0  0  0  0  0  0  0  0
    6.8633   -6.1439   17.8635 C   0  0  0  0  0  0  0  0  0  0  0  0
    6.8420   -5.8657   19.0538 O   0  0  0  0  0  0  0  0  0  0  0  0
    8.7276   -4.7731   17.0426 C   0  0  2  0  0  0  0  0  0  0  0  0
    9.2116   -3.6118   16.1786 C   0  0  0  0  0  0  0  0  0  0  0  0
    9.5738   -6.0269   16.7849 C   0  0  0  0  0  0  0  0  0  0  0  0
    9.7063   -4.0549   14.8216 C   0  0  0  0  0  0  0  0  0  0  0  0
    6.5386   -7.3677   17.3732 N   0  0  0  0  0  0  0  0  0  0  0  0
    6.1512   -8.4580   18.2445 C   0  0  0  0  0  0  0  0  0  0  0  0
    5.0741   -9.2900   17.5641 C   0  0  0  0  0  0  0  0  0  0  0  0
    3.6917   -8.7769   17.9193 C   0  0  0  0  0  0  0  0  0  0  0  0
    0.1156   -0.0563   12.2914 H   0  0  0  0  0  0  0  0  0  0  0  0
    0.8966    0.8381   13.6258 H   0  0  0  0  0  0  0  0  0  0  0  0
    1.7577   -0.4671   12.8036 H   0  0  0  0  0  0  0  0  0  0  0  0
   -0.3293    2.1676   11.2206 H   0  0  0  0  0  0  0  0  0  0  0  0
    1.0327    3.2738   10.8853 H   0  0  0  0  0  0  0  0  0  0  0  0
    0.5251    2.9803   12.5612 H   0  0  0  0  0  0  0  0  0  0  0  0
    0.8704    0.3273    9.9029 H   0  0  0  0  0  0  0  0  0  0  0  0
    2.5531   -0.0485   10.3003 H   0  0  0  0  0  0  0  0  0  0  0  0
    2.1623    1.5117    9.5722 H   0  0  0  0  0  0  0  0  0  0  0  0
    4.8300   -1.2297   14.5066 H   0  0  0  0  0  0  0  0  0  0  0  0
    3.8852    0.1954   15.0339 H   0  0  0  0  0  0  0  0  0  0  0  0
    4.8572    2.6432   13.1465 H   0  0  0  0  0  0  0  0  0  0  0  0
    6.1463   -0.0254   12.7985 H   0  0  0  0  0  0  0  0  0  0  0  0
    8.2155    1.1754   13.4903 H   0  0  0  0  0  0  0  0  0  0  0  0
    7.2586    2.6576   13.7444 H   0  0  0  0  0  0  0  0  0  0  0  0
    8.0518    0.0820   11.1511 H   0  0  0  0  0  0  0  0  0  0  0  0
    7.0203    4.1629   12.0166 H   0  0  0  0  0  0  0  0  0  0  0  0
    8.1944    0.6309    8.7540 H   0  0  0  0  0  0  0  0  0  0  0  0
    7.1699    4.7122    9.6181 H   0  0  0  0  0  0  0  0  0  0  0  0
    7.7481    2.9405    7.9788 H   0  0  0  0  0  0  0  0  0  0  0  0
    5.9566    1.4561   15.4672 H   0  0  0  0  0  0  0  0  0  0  0  0
    7.2808   -0.3735   16.1331 H   0  0  0  0  0  0  0  0  0  0  0  0
    4.3235   -0.1871   17.1318 H   0  0  0  0  0  0  0  0  0  0  0  0
    4.8213   -2.2722   17.9627 H   0  0  0  0  0  0  0  0  0  0  0  0
    3.0960   -2.2888   15.4554 H   0  0  0  0  0  0  0  0  0  0  0  0
    2.5938   -2.0911   17.1463 H   0  0  0  0  0  0  0  0  0  0  0  0
    3.0372   -4.1338   18.7568 H   0  0  0  0  0  0  0  0  0  0  0  0
    3.0911   -4.4080   14.4513 H   0  0  0  0  0  0  0  0  0  0  0  0
    2.9478   -6.5337   18.9071 H   0  0  0  0  0  0  0  0  0  0  0  0
    3.0112   -6.8675   14.6108 H   0  0  0  0  0  0  0  0  0  0  0  0
    6.0961   -3.8998   18.1311 H   0  0  0  0  0  0  0  0  0  0  0  0
    7.0722   -5.4439   15.7817 H   0  0  0  0  0  0  0  0  0  0  0  0
    8.8688   -4.4822   18.0906 H   0  0  0  0  0  0  0  0  0  0  0  0
   10.0382   -3.1003   16.6829 H   0  0  0  0  0  0  0  0  0  0  0  0
    8.4025   -2.9006   16.0222 H   0  0  0  0  0  0  0  0  0  0  0  0
    9.2391   -6.8558   17.4066 H   0  0  0  0  0  0  0  0  0  0  0  0
   10.6278   -5.8275   17.0035 H   0  0  0  0  0  0  0  0  0  0  0  0
    9.4816   -6.3404   15.7360 H   0  0  0  0  0  0  0  0  0  0  0  0
   10.0368   -3.1879   14.2531 H   0  0  0  0  0  0  0  0  0  0  0  0
    8.8983   -4.5643   14.2912 H   0  0  0  0  0  0  0  0  0  0  0  0
   10.5547   -4.7352   14.9426 H   0  0  0  0  0  0  0  0  0  0  0  0
    6.5636   -7.5180   16.3699 H   0  0  0  0  0  0  0  0  0  0  0  0
    7.0391   -9.0679   18.4426 H   0  0  0  0  0  0  0  0  0  0  0  0
    5.7961   -8.0502   19.1979 H   0  0  0  0  0  0  0  0  0  0  0  0
    5.1619  -10.3201   17.9210 H   0  0  0  0  0  0  0  0  0  0  0  0
    5.2183   -9.2674   16.4832 H   0  0  0  0  0  0  0  0  0  0  0  0
    3.0846   -9.5778   18.3353 H   0  0  0  0  0  0  0  0  0  0  0  0
    3.8054   -8.0369   18.6934 H   0  0  0  0  0  0  0  0  0  0  0  0
    5.8843   -0.5413   16.8933 H   0  0  0  0  0  0  0  0  0  0  0  0
  1  2  2  0  0  0  0
  2  3  1  0  0  0  0
  2  9  1  0  0  0  0
  3  4  1  0  0  0  0
  4  7  1  0  0  0  0
  4  6  1  0  0  0  0
  4  5  1  0  0  0  0
  5 44  1  0  0  0  0
  5 45  1  0  0  0  0
  5 46  1  0  0  0  0
  6 47  1  0  0  0  0
  6 48  1  0  0  0  0
  6 49  1  0  0  0  0
  7 50  1  0  0  0  0
  7 51  1  0  0  0  0
  7 52  1  0  0  0  0
  8 18  1  0  0  0  0
  8 20  1  0  0  0  0
  8 53  1  0  0  0  0
  8 54  1  0  0  0  0
  9 10  1  0  0  0  0
  9 55  1  0  0  0  0
 10 18  1  0  0  0  0
 10 11  1  0  0  0  0
 10 56  1  6  0  0  0
 11 12  1  0  0  0  0
 11 57  1  0  0  0  0
 11 58  1  0  0  0  0
 12 14  2  0  0  0  0
 12 13  1  0  0  0  0
 13 15  2  0  0  0  0
 13 59  1  0  0  0  0
 14 16  1  0  0  0  0
 14 60  1  0  0  0  0
 15 17  1  0  0  0  0
 15 61  1  0  0  0  0
 16 17  2  0  0  0  0
 16 62  1  0  0  0  0
 17 63  1  0  0  0  0
 18 19  1  0  0  0  0
 18 64  1  1  0  0  0
 19 65  1  0  0  0  0
 20 21  1  0  0  0  0
 20 66  1  0  0  0  0
 20 92  1  0  0  0  0
 21 22  1  0  0  0  0
 21 24  1  0  0  0  0
 21 67  1  1  0  0  0
 22 23  2  0  0  0  0
 22 32  1  0  0  0  0
 24 25  1  0  0  0  0
 24 68  1  0  0  0  0
 24 69  1  0  0  0  0
 25 27  2  0  0  0  0
 25 26  1  0  0  0  0
 26 28  2  0  0  0  0
 26 70  1  0  0  0  0
 27 29  1  0  0  0  0
 27 71  1  0  0  0  0
 28 30  1  0  0  0  0
 28 72  1  0  0  0  0
 29 30  2  0  0  0  0
 29 73  1  0  0  0  0
 30 31  1  0  0  0  0
 31 43  1  0  0  0  0
 32 33  1  0  0  0  0
 32 74  1  0  0  0  0
 33 34  1  0  0  0  0
 33 36  1  0  0  0  0
 33 75  1  6  0  0  0
 34 35  2  0  0  0  0
 34 40  1  0  0  0  0
 36 37  1  0  0  0  0
 36 38  1  0  0  0  0
 36 76  1  1  0  0  0
 37 39  1  0  0  0  0
 37 77  1  0  0  0  0
 37 78  1  0  0  0  0
 38 79  1  0  0  0  0
 38 80  1  0  0  0  0
 38 81  1  0  0  0  0
 39 82  1  0  0  0  0
 39 83  1  0  0  0  0
 39 84  1  0  0  0  0
 40 41  1  0  0  0  0
 40 85  1  0  0  0  0
 41 42  1  0  0  0  0
 41 86  1  0  0  0  0
 41 87  1  0  0  0  0
 42 43  1  0  0  0  0
 42 88  1  0  0  0  0
 42 89  1  0  0  0  0
 43 90  1  0  0  0  0
 43 91  1  0  0  0  0
M  CHG  1  20   1
M  END
$$$$
