PI8
 OpenBabel04041914163D

106110  0  0  1  0  0  0  0  0999 V2000
    4.5769    2.0029   12.0855 N   0  0  0  0  0  0  0  0  0  0  0  0
    3.5699    1.9336   11.0573 C   0  0  2  0  0  0  0  0  0  0  0  0
    3.4522    3.3322   10.4316 C   0  0  2  0  0  0  0  0  0  0  0  0
    3.7865    4.3152   11.4405 O   0  0  0  0  0  0  0  0  0  0  0  0
    2.0018    3.5078    9.9980 C   0  0  0  0  0  0  0  0  0  0  0  0
    2.1567    1.7012   11.5501 C   0  0  0  0  0  0  0  0  0  0  0  0
    1.2756    2.5915   10.9321 C   0  0  0  0  0  0  0  0  0  0  0  0
    1.6759    0.7392   12.4430 C   0  0  0  0  0  0  0  0  0  0  0  0
   -0.0818    2.5534   11.2043 C   0  0  0  0  0  0  0  0  0  0  0  0
    0.3069    0.7022   12.7259 C   0  0  0  0  0  0  0  0  0  0  0  0
   -0.5671    1.6075   12.1149 C   0  0  0  0  0  0  0  0  0  0  0  0
    6.3809    1.1740   13.4713 C   0  0  1  0  0  0  0  0  0  0  0  0
    7.7392    1.2928   12.7731 C   0  0  0  0  0  0  0  0  0  0  0  0
    7.7477    2.2460   11.6171 C   0  0  0  0  0  0  0  0  0  0  0  0
    7.7261    1.7590   10.3076 C   0  0  0  0  0  0  0  0  0  0  0  0
    7.7290    3.6210   11.8398 C   0  0  0  0  0  0  0  0  0  0  0  0
    7.6950    2.6419    9.2340 C   0  0  0  0  0  0  0  0  0  0  0  0
    7.6979    4.5037   10.7687 C   0  0  0  0  0  0  0  0  0  0  0  0
    7.6825    4.0142    9.4634 C   0  0  0  0  0  0  0  0  0  0  0  0
    5.2933    0.9268   12.4443 C   0  0  0  0  0  0  0  0  0  0  0  0
    5.0626   -0.1908   11.9963 O   0  0  0  0  0  0  0  0  0  0  0  0
    6.4582   -0.0113   14.4235 C   0  0  0  0  0  0  0  0  0  0  0  0
    5.2892    0.3340   16.4926 O   0  0  0  0  0  0  0  0  0  0  0  0
    5.1855   -0.2755   15.2093 C   0  0  2  0  0  0  0  0  0  0  0  0
    5.1144   -1.7788   15.3694 C   0  0  0  0  0  0  0  0  0  0  0  0
    3.9221   -2.1595   16.1683 N   0  3  0  0  0  0  0  0  0  0  0  0
    4.0517   -3.5283   16.7938 C   0  0  1  0  0  0  0  0  0  0  0  0
    2.7087   -4.2315   16.7078 C   0  0  0  0  0  0  0  0  0  0  0  0
    2.8162   -5.6969   16.9989 C   0  0  0  0  0  0  0  0  0  0  0  0
    2.8964   -6.1531   18.3134 C   0  0  0  0  0  0  0  0  0  0  0  0
    3.0647   -7.5135   18.5773 C   0  0  0  0  0  0  0  0  0  0  0  0
    2.9159   -6.6186   15.9527 C   0  0  0  0  0  0  0  0  0  0  0  0
    3.0911   -7.9784   16.2219 C   0  0  0  0  0  0  0  0  0  0  0  0
    3.1786   -8.4334   17.5392 C   0  0  0  0  0  0  0  0  0  0  0  0
    3.3489   -9.7833   17.7117 O   0  0  0  0  0  0  0  0  0  0  0  0
    5.1645   -4.4046   16.1779 C   0  0  0  0  0  0  0  0  0  0  0  0
    5.2294   -4.6208   14.9933 O   0  0  0  0  0  0  0  0  0  0  0  0
    6.0881   -4.8137   17.0908 N   0  0  0  0  0  0  0  0  0  0  0  0
    7.1698   -5.7416   16.7317 C   0  0  1  0  0  0  0  0  0  0  0  0
    8.4801   -5.0302   16.3376 C   0  0  1  0  0  0  0  0  0  0  0  0
    9.1759   -5.8171   15.2288 C   0  0  0  0  0  0  0  0  0  0  0  0
    8.2165   -3.5989   15.8695 C   0  0  0  0  0  0  0  0  0  0  0  0
    9.4027   -2.9277   15.2301 C   0  0  0  0  0  0  0  0  0  0  0  0
    7.4135   -6.5912   18.0078 C   0  0  0  0  0  0  0  0  0  0  0  0
    7.3953   -6.0793   19.0985 O   0  0  0  0  0  0  0  0  0  0  0  0
    7.6561   -7.9158   17.7740 N   0  0  0  0  0  0  0  0  0  0  0  0
    7.9189   -8.8603   18.8537 C   0  0  0  0  0  0  0  0  0  0  0  0
    7.6111  -10.2953   18.4424 C   0  0  0  0  0  0  0  0  0  0  0  0
    6.1332  -10.5038   18.1258 C   0  0  0  0  0  0  0  0  0  0  0  0
    5.2392  -10.0117   19.2578 C   0  0  0  0  0  0  0  0  0  0  0  0
    3.7705  -10.2893   18.9891 C   0  0  0  0  0  0  0  0  0  0  0  0
    4.7964    2.9205   12.4597 H   0  0  0  0  0  0  0  0  0  0  0  0
    3.7984    1.1837   10.2978 H   0  0  0  0  0  0  0  0  0  0  0  0
    4.1524    3.4351    9.5923 H   0  0  0  0  0  0  0  0  0  0  0  0
    3.6487    5.1914   11.0479 H   0  0  0  0  0  0  0  0  0  0  0  0
    1.8991    3.1864    8.9600 H   0  0  0  0  0  0  0  0  0  0  0  0
    1.7029    4.5481   10.1296 H   0  0  0  0  0  0  0  0  0  0  0  0
    2.3549    0.0435   12.9004 H   0  0  0  0  0  0  0  0  0  0  0  0
   -0.7612    3.2582   10.7352 H   0  0  0  0  0  0  0  0  0  0  0  0
   -0.0769   -0.0355   13.4258 H   0  0  0  0  0  0  0  0  0  0  0  0
   -1.6318    1.5744   12.3432 H   0  0  0  0  0  0  0  0  0  0  0  0
    6.1721    2.0889   14.0371 H   0  0  0  0  0  0  0  0  0  0  0  0
    8.0533    0.3026   12.4136 H   0  0  0  0  0  0  0  0  0  0  0  0
    8.4884    1.6288   13.5029 H   0  0  0  0  0  0  0  0  0  0  0  0
    7.7313    0.6868   10.1242 H   0  0  0  0  0  0  0  0  0  0  0  0
    7.7424    4.0064   12.8546 H   0  0  0  0  0  0  0  0  0  0  0  0
    7.6848    2.2570    8.2188 H   0  0  0  0  0  0  0  0  0  0  0  0
    7.6937    5.5733   10.9480 H   0  0  0  0  0  0  0  0  0  0  0  0
    7.6628    4.7061    8.6249 H   0  0  0  0  0  0  0  0  0  0  0  0
    7.2794    0.1504   15.1295 H   0  0  0  0  0  0  0  0  0  0  0  0
    6.6874   -0.9086   13.8271 H   0  0  0  0  0  0  0  0  0  0  0  0
    4.4846    0.2073   17.0115 H   0  0  0  0  0  0  0  0  0  0  0  0
    4.2932    0.0922   14.6996 H   0  0  0  0  0  0  0  0  0  0  0  0
    5.9874   -2.1276   15.9196 H   0  0  0  0  0  0  0  0  0  0  0  0
    5.0263   -2.2715   14.3994 H   0  0  0  0  0  0  0  0  0  0  0  0
    3.7706   -1.4819   16.9172 H   0  0  0  0  0  0  0  0  0  0  0  0
    4.3038   -3.3145   17.8364 H   0  0  0  0  0  0  0  0  0  0  0  0
    2.2758   -4.0930   15.7084 H   0  0  0  0  0  0  0  0  0  0  0  0
    2.0304   -3.7686   17.4327 H   0  0  0  0  0  0  0  0  0  0  0  0
    2.8192   -5.4590   19.1431 H   0  0  0  0  0  0  0  0  0  0  0  0
    3.1129   -7.8431   19.6075 H   0  0  0  0  0  0  0  0  0  0  0  0
    2.8666   -6.2788   14.9161 H   0  0  0  0  0  0  0  0  0  0  0  0
    3.1688   -8.6793   15.3925 H   0  0  0  0  0  0  0  0  0  0  0  0
    6.0600   -4.4845   18.0492 H   0  0  0  0  0  0  0  0  0  0  0  0
    6.8264   -6.3814   15.9105 H   0  0  0  0  0  0  0  0  0  0  0  0
    9.1528   -4.9900   17.2050 H   0  0  0  0  0  0  0  0  0  0  0  0
   10.1178   -5.3398   14.9417 H   0  0  0  0  0  0  0  0  0  0  0  0
    8.5329   -5.8699   14.3419 H   0  0  0  0  0  0  0  0  0  0  0  0
    9.4124   -6.8291   15.5586 H   0  0  0  0  0  0  0  0  0  0  0  0
    7.9070   -2.9949   16.7303 H   0  0  0  0  0  0  0  0  0  0  0  0
    7.4150   -3.6098   15.1276 H   0  0  0  0  0  0  0  0  0  0  0  0
    9.1306   -1.9190   14.9173 H   0  0  0  0  0  0  0  0  0  0  0  0
    9.7142   -3.4794   14.3396 H   0  0  0  0  0  0  0  0  0  0  0  0
   10.2290   -2.8845   15.9407 H   0  0  0  0  0  0  0  0  0  0  0  0
    7.6298   -8.2536   16.8249 H   0  0  0  0  0  0  0  0  0  0  0  0
    8.9729   -8.7828   19.1299 H   0  0  0  0  0  0  0  0  0  0  0  0
    7.3262   -8.5880   19.7305 H   0  0  0  0  0  0  0  0  0  0  0  0
    8.2045  -10.5592   17.5595 H   0  0  0  0  0  0  0  0  0  0  0  0
    7.8944  -10.9696   19.2604 H   0  0  0  0  0  0  0  0  0  0  0  0
    5.8871   -9.9635   17.2051 H   0  0  0  0  0  0  0  0  0  0  0  0
    5.9481  -11.5708   17.9581 H   0  0  0  0  0  0  0  0  0  0  0  0
    5.5470  -10.4897   20.1958 H   0  0  0  0  0  0  0  0  0  0  0  0
    5.3648   -8.9305   19.3664 H   0  0  0  0  0  0  0  0  0  0  0  0
    3.6235  -11.3779   18.9805 H   0  0  0  0  0  0  0  0  0  0  0  0
    3.1620   -9.8885   19.8083 H   0  0  0  0  0  0  0  0  0  0  0  0
    3.1010   -2.1279   15.5491 H   0  0  0  0  0  0  0  0  0  0  0  0
  1 20  1  0  0  0  0
  1  2  1  0  0  0  0
  1 52  1  0  0  0  0
  2  6  1  0  0  0  0
  2  3  1  0  0  0  0
  2 53  1  6  0  0  0
  3  5  1  0  0  0  0
  3  4  1  0  0  0  0
  3 54  1  6  0  0  0
  4 55  1  0  0  0  0
  5  7  1  0  0  0  0
  5 56  1  0  0  0  0
  5 57  1  0  0  0  0
  6  7  1  0  0  0  0
  6  8  2  0  0  0  0
  7  9  2  0  0  0  0
  8 10  1  0  0  0  0
  8 58  1  0  0  0  0
  9 11  1  0  0  0  0
  9 59  1  0  0  0  0
 10 11  2  0  0  0  0
 10 60  1  0  0  0  0
 11 61  1  0  0  0  0
 12 20  1  0  0  0  0
 12 22  1  0  0  0  0
 12 13  1  0  0  0  0
 12 62  1  1  0  0  0
 13 14  1  0  0  0  0
 13 63  1  0  0  0  0
 13 64  1  0  0  0  0
 14 16  2  0  0  0  0
 14 15  1  0  0  0  0
 15 17  2  0  0  0  0
 15 65  1  0  0  0  0
 16 18  1  0  0  0  0
 16 66  1  0  0  0  0
 17 19  1  0  0  0  0
 17 67  1  0  0  0  0
 18 19  2  0  0  0  0
 18 68  1  0  0  0  0
 19 69  1  0  0  0  0
 20 21  2  0  0  0  0
 22 24  1  0  0  0  0
 22 70  1  0  0  0  0
 22 71  1  0  0  0  0
 23 24  1  0  0  0  0
 23 72  1  0  0  0  0
 24 25  1  0  0  0  0
 24 73  1  6  0  0  0
 25 26  1  0  0  0  0
 25 74  1  0  0  0  0
 25 75  1  0  0  0  0
 26 27  1  0  0  0  0
 26 76  1  0  0  0  0
 26106  1  0  0  0  0
 27 36  1  0  0  0  0
 27 28  1  0  0  0  0
 27 77  1  1  0  0  0
 28 29  1  0  0  0  0
 28 78  1  0  0  0  0
 28 79  1  0  0  0  0
 29 32  2  0  0  0  0
 29 30  1  0  0  0  0
 30 31  2  0  0  0  0
 30 80  1  0  0  0  0
 31 34  1  0  0  0  0
 31 81  1  0  0  0  0
 32 33  1  0  0  0  0
 32 82  1  0  0  0  0
 33 34  2  0  0  0  0
 33 83  1  0  0  0  0
 34 35  1  0  0  0  0
 35 51  1  0  0  0  0
 36 38  1  0  0  0  0
 36 37  2  0  0  0  0
 38 39  1  0  0  0  0
 38 84  1  0  0  0  0
 39 44  1  0  0  0  0
 39 40  1  0  0  0  0
 39 85  1  6  0  0  0
 40 42  1  0  0  0  0
 40 41  1  0  0  0  0
 40 86  1  1  0  0  0
 41 87  1  0  0  0  0
 41 88  1  0  0  0  0
 41 89  1  0  0  0  0
 42 43  1  0  0  0  0
 42 90  1  0  0  0  0
 42 91  1  0  0  0  0
 43 92  1  0  0  0  0
 43 93  1  0  0  0  0
 43 94  1  0  0  0  0
 44 46  1  0  0  0  0
 44 45  2  0  0  0  0
 46 47  1  0  0  0  0
 46 95  1  0  0  0  0
 47 48  1  0  0  0  0
 47 96  1  0  0  0  0
 47 97  1  0  0  0  0
 48 49  1  0  0  0  0
 48 98  1  0  0  0  0
 48 99  1  0  0  0  0
 49 50  1  0  0  0  0
 49100  1  0  0  0  0
 49101  1  0  0  0  0
 50 51  1  0  0  0  0
 50102  1  0  0  0  0
 50103  1  0  0  0  0
 51104  1  0  0  0  0
 51105  1  0  0  0  0
M  CHG  1  26   1
M  END
$$$$
