PIC
 OpenBabel04041914073D

 26 27  0  0  0  0  0  0  0  0999 V2000
   46.4318   15.8839    4.2272 C   0  0  0  0  0  0  0  0  0  0  0  0
   45.8503   14.9199    3.2267 C   0  0  0  0  0  0  0  0  0  0  0  0
   44.7435   15.3020    2.4615 C   0  0  0  0  0  0  0  0  0  0  0  0
   44.6621   10.9336    0.3114 C   0  0  0  0  0  0  0  0  0  0  0  0
   45.7699   10.5579    1.0868 C   0  0  0  0  0  0  0  0  0  0  0  0
   46.3413   11.4445    2.0070 C   0  0  0  0  0  0  0  0  0  0  0  0
   45.8217   12.7335    2.1600 C   0  0  0  0  0  0  0  0  0  0  0  0
   46.3820   13.6330    3.0753 C   0  0  0  0  0  0  0  0  0  0  0  0
   44.0475    9.9720   -0.6855 C   0  0  0  0  0  0  0  0  0  0  0  0
   44.1739   14.4173    1.5504 C   0  0  0  0  0  0  0  0  0  0  0  0
   44.7045   13.1310    1.3887 C   0  0  0  0  0  0  0  0  0  0  0  0
   44.1377   12.2258    0.4816 C   0  0  0  0  0  0  0  0  0  0  0  0
   43.0452   10.3773   -1.3579 O   0  0  0  0  0  0  0  0  0  0  0  0
   44.5835    8.8220   -0.7972 O   0  0  0  0  0  0  0  0  0  0  0  0
   45.3776   16.1448    5.8763 P   0  0  0  0  0  0  0  0  0  0  0  0
   46.1182   17.2258    6.6750 O   0  0  0  0  0  0  0  0  0  0  0  0
   45.3770   14.7790    6.5658 O   0  0  0  0  0  0  0  0  0  0  0  0
   43.9911   16.6014    5.3965 O   0  0  0  0  0  0  0  0  0  0  0  0
   46.5611   17.1595    3.7416 F   0  0  0  0  0  0  0  0  0  0  0  0
   47.6683   15.5323    4.7034 F   0  0  0  0  0  0  0  0  0  0  0  0
   44.3010   16.2835    2.6295 H   0  0  0  0  0  0  0  0  0  0  0  0
   46.1852    9.5611    0.9782 H   0  0  0  0  0  0  0  0  0  0  0  0
   47.1873   11.1202    2.6068 H   0  0  0  0  0  0  0  0  0  0  0  0
   47.2161   13.3355    3.7081 H   0  0  0  0  0  0  0  0  0  0  0  0
   43.2962   14.7312    0.9938 H   0  0  0  0  0  0  0  0  0  0  0  0
   43.2681   12.5194   -0.1033 H   0  0  0  0  0  0  0  0  0  0  0  0
  1 15  1  0  0  0  0
  1  2  1  0  0  0  0
  1 20  1  0  0  0  0
  1 19  1  0  0  0  0
  2  8  2  0  0  0  0
  2  3  1  0  0  0  0
  3 10  2  0  0  0  0
  3 21  1  0  0  0  0
  4  5  2  0  0  0  0
  4 12  1  0  0  0  0
  4  9  1  0  0  0  0
  5  6  1  0  0  0  0
  5 22  1  0  0  0  0
  6  7  2  0  0  0  0
  6 23  1  0  0  0  0
  7 11  1  0  0  0  0
  7  8  1  0  0  0  0
  8 24  1  0  0  0  0
  9 14  2  0  0  0  0
  9 13  1  0  0  0  0
 10 11  1  0  0  0  0
 10 25  1  0  0  0  0
 11 12  2  0  0  0  0
 12 26  1  0  0  0  0
 15 18  2  0  0  0  0
 15 17  1  0  0  0  0
 15 16  1  0  0  0  0
M  END
$$$$
