PKF
 OpenBabel04041916383D

104107  0  0  1  0  0  0  0  0999 V2000
   18.8197   14.2181   23.7901 C   0  0  0  0  0  0  0  0  0  0  0  0
   17.9764   14.3599   22.9159 O   0  0  0  0  0  0  0  0  0  0  0  0
   19.4161   13.0327   24.1035 O   0  0  0  0  0  0  0  0  0  0  0  0
   19.0093   11.9116   23.2881 C   0  0  0  0  0  0  0  0  0  0  0  0
   17.6154   11.4063   23.5913 C   0  0  0  0  0  0  0  0  0  0  0  0
   16.6365   11.3470   22.5859 C   0  0  0  0  0  0  0  0  0  0  0  0
   17.2825   10.9815   24.8821 C   0  0  0  0  0  0  0  0  0  0  0  0
   15.3453   10.8924   22.8721 C   0  0  0  0  0  0  0  0  0  0  0  0
   15.9919   10.5255   25.1661 C   0  0  0  0  0  0  0  0  0  0  0  0
   15.0247   10.4834   24.1639 C   0  0  0  0  0  0  0  0  0  0  0  0
   19.2693   15.2753   24.5692 N   0  0  0  0  0  0  0  0  0  0  0  0
   19.8728   15.1370   25.8866 C   0  0  0  0  0  0  0  0  0  0  0  0
   18.5869   16.5598   24.4567 C   0  0  1  0  0  0  0  0  0  0  0  0
   18.7149   17.2047   25.8359 C   0  0  0  0  0  0  0  0  0  0  0  0
   19.9765   16.5644   26.4004 C   0  0  0  0  0  0  0  0  0  0  0  0
   19.1358   17.4890   23.3581 C   0  0  0  0  0  0  0  0  0  0  0  0
   20.0760   17.1939   22.6213 O   0  0  0  0  0  0  0  0  0  0  0  0
   18.3872   18.6355   23.2017 N   0  0  0  0  0  0  0  0  0  0  0  0
   17.9682   18.0562   20.0896 C   0  0  0  0  0  0  0  0  0  0  0  0
   18.8374   19.7551   22.3590 C   0  0  1  0  0  0  0  0  0  0  0  0
   17.6565   20.1679   21.4488 C   0  0  0  0  0  0  0  0  0  0  0  0
   17.7860   19.5704   20.0680 C   0  0  0  0  0  0  0  0  0  0  0  0
   19.2095   20.8743   23.2670 C   0  0  0  0  0  0  0  0  0  0  0  0
   18.6338   21.0620   24.3412 O   0  0  0  0  0  0  0  0  0  0  0  0
   18.3643   17.5659   18.7217 C   0  0  0  0  0  0  0  0  0  0  0  0
   18.5286   16.0986   18.7726 N   0  3  0  0  0  0  0  0  0  0  0  0
   20.9202   25.5531   23.9553 C   0  0  0  0  0  0  0  0  0  0  0  0
   18.6942   24.3932   22.9478 O   0  0  0  0  0  0  0  0  0  0  0  0
   20.8666   24.4260   21.4672 O   0  0  0  0  0  0  0  0  0  0  0  0
   22.0913   27.6995   24.1440 C   0  0  0  0  0  0  0  0  0  0  0  0
   22.7374   20.1575   23.9448 C   0  0  0  0  0  0  0  0  0  0  0  0
   22.9973   19.0322   24.7204 C   0  0  0  0  0  0  0  0  0  0  0  0
   23.2420   19.1731   26.0847 C   0  0  0  0  0  0  0  0  0  0  0  0
   20.2923   21.6513   22.8060 N   0  0  0  0  0  0  0  0  0  0  0  0
   20.7879   22.7580   23.6101 C   0  0  1  0  0  0  0  0  0  0  0  0
   22.3046   22.6355   23.7100 C   0  0  0  0  0  0  0  0  0  0  0  0
   22.7030   21.4293   24.5304 C   0  0  0  0  0  0  0  0  0  0  0  0
   21.0561   26.9326   23.3400 C   0  0  2  0  0  0  0  0  0  0  0  0
   19.7262   27.6672   23.3524 C   0  0  0  0  0  0  0  0  0  0  0  0
   22.0804   27.7079   25.3793 O   0  0  0  0  0  0  0  0  0  0  0  0
   22.9535   21.5630   25.9007 C   0  0  0  0  0  0  0  0  0  0  0  0
   23.2248   20.4374   26.6738 C   0  0  0  0  0  0  0  0  0  0  0  0
   20.1983   24.3232   22.8248 P   0  0  1  0  0  0  0  0  0  0  0  0
   23.5901   30.1847   27.2258 C   0  0  0  0  0  0  0  0  0  0  0  0
   23.9852   30.8030   26.0069 O   0  0  0  0  0  0  0  0  0  0  0  0
   23.0258   28.4274   23.4444 N   0  0  0  0  0  0  0  0  0  0  0  0
   23.2026   28.5310   22.0080 C   0  0  0  0  0  0  0  0  0  0  0  0
   23.9638   29.2840   24.1644 C   0  0  1  0  0  0  0  0  0  0  0  0
   24.7728   29.9732   23.0667 C   0  0  0  0  0  0  0  0  0  0  0  0
   23.8639   29.8854   21.8432 C   0  0  0  0  0  0  0  0  0  0  0  0
   23.2004   30.3179   25.0071 C   0  0  0  0  0  0  0  0  0  0  0  0
   22.0388   30.6830   24.8334 O   0  0  0  0  0  0  0  0  0  0  0  0
   19.7166   11.0950   23.4879 H   0  0  0  0  0  0  0  0  0  0  0  0
   19.1251   12.1504   22.2233 H   0  0  0  0  0  0  0  0  0  0  0  0
   16.8655   11.6676   21.5722 H   0  0  0  0  0  0  0  0  0  0  0  0
   18.0259   11.0083   25.6727 H   0  0  0  0  0  0  0  0  0  0  0  0
   14.5897   10.8627   22.0913 H   0  0  0  0  0  0  0  0  0  0  0  0
   15.7404   10.2060   26.1747 H   0  0  0  0  0  0  0  0  0  0  0  0
   14.0187   10.1349   24.3913 H   0  0  0  0  0  0  0  0  0  0  0  0
   20.8295   14.6082   25.8720 H   0  0  0  0  0  0  0  0  0  0  0  0
   19.1549   14.5659   26.4899 H   0  0  0  0  0  0  0  0  0  0  0  0
   17.5356   16.3744   24.2187 H   0  0  0  0  0  0  0  0  0  0  0  0
   18.7790   18.2952   25.8238 H   0  0  0  0  0  0  0  0  0  0  0  0
   17.8502   16.9211   26.4463 H   0  0  0  0  0  0  0  0  0  0  0  0
   20.8596   17.0603   25.9805 H   0  0  0  0  0  0  0  0  0  0  0  0
   20.0237   16.6258   27.4900 H   0  0  0  0  0  0  0  0  0  0  0  0
   17.7193   18.9078   23.9018 H   0  0  0  0  0  0  0  0  0  0  0  0
   17.0556   17.5697   20.4546 H   0  0  0  0  0  0  0  0  0  0  0  0
   18.7714   17.7652   20.7621 H   0  0  0  0  0  0  0  0  0  0  0  0
   19.7127   19.4505   21.7710 H   0  0  0  0  0  0  0  0  0  0  0  0
   17.6138   21.2598   21.3647 H   0  0  0  0  0  0  0  0  0  0  0  0
   16.7155   19.8554   21.9029 H   0  0  0  0  0  0  0  0  0  0  0  0
   18.6383   20.0397   19.5619 H   0  0  0  0  0  0  0  0  0  0  0  0
   16.8884   19.8160   19.4932 H   0  0  0  0  0  0  0  0  0  0  0  0
   19.3269   17.9850   18.4104 H   0  0  0  0  0  0  0  0  0  0  0  0
   17.5945   17.7912   17.9822 H   0  0  0  0  0  0  0  0  0  0  0  0
   18.7968   15.7302   17.8547 H   0  0  0  0  0  0  0  0  0  0  0  0
   19.2564   15.8318   19.4537 H   0  0  0  0  0  0  0  0  0  0  0  0
   21.9198   25.2391   24.2552 H   0  0  0  0  0  0  0  0  0  0  0  0
   20.3279   25.5851   24.8769 H   0  0  0  0  0  0  0  0  0  0  0  0
   22.5309   20.0410   22.8844 H   0  0  0  0  0  0  0  0  0  0  0  0
   22.9974   18.0505   24.2570 H   0  0  0  0  0  0  0  0  0  0  0  0
   23.4445   18.2962   26.6910 H   0  0  0  0  0  0  0  0  0  0  0  0
   20.6690   21.5388   21.8743 H   0  0  0  0  0  0  0  0  0  0  0  0
   20.3326   22.7258   24.6088 H   0  0  0  0  0  0  0  0  0  0  0  0
   22.7438   23.5116   24.1850 H   0  0  0  0  0  0  0  0  0  0  0  0
   22.7638   22.5785   22.7139 H   0  0  0  0  0  0  0  0  0  0  0  0
   21.3918   26.8149   22.3089 H   0  0  0  0  0  0  0  0  0  0  0  0
   19.8229   28.6714   22.9301 H   0  0  0  0  0  0  0  0  0  0  0  0
   19.3445   27.7706   24.3747 H   0  0  0  0  0  0  0  0  0  0  0  0
   18.9817   27.1189   22.7674 H   0  0  0  0  0  0  0  0  0  0  0  0
   22.9239   22.5451   26.3709 H   0  0  0  0  0  0  0  0  0  0  0  0
   23.4137   20.5479   27.7376 H   0  0  0  0  0  0  0  0  0  0  0  0
   24.0841   30.6861   28.0621 H   0  0  0  0  0  0  0  0  0  0  0  0
   23.9158   29.1416   27.2013 H   0  0  0  0  0  0  0  0  0  0  0  0
   22.5068   30.2365   27.3793 H   0  0  0  0  0  0  0  0  0  0  0  0
   22.2655   28.4610   21.4553 H   0  0  0  0  0  0  0  0  0  0  0  0
   23.8755   27.7257   21.6887 H   0  0  0  0  0  0  0  0  0  0  0  0
   24.5944   28.6584   24.8121 H   0  0  0  0  0  0  0  0  0  0  0  0
   25.0346   31.0077   23.3066 H   0  0  0  0  0  0  0  0  0  0  0  0
   25.6963   29.4153   22.8711 H   0  0  0  0  0  0  0  0  0  0  0  0
   23.0980   30.6694   21.8891 H   0  0  0  0  0  0  0  0  0  0  0  0
   24.4041   29.9804   20.8988 H   0  0  0  0  0  0  0  0  0  0  0  0
   17.6606   15.6371   19.0717 H   0  0  0  0  0  0  0  0  0  0  0  0
  1 11  1  0  0  0  0
  1  3  1  0  0  0  0
  1  2  2  0  0  0  0
  3  4  1  0  0  0  0
  4  5  1  0  0  0  0
  4 53  1  0  0  0  0
  4 54  1  0  0  0  0
  5  7  2  0  0  0  0
  5  6  1  0  0  0  0
  6  8  2  0  0  0  0
  6 55  1  0  0  0  0
  7  9  1  0  0  0  0
  7 56  1  0  0  0  0
  8 10  1  0  0  0  0
  8 57  1  0  0  0  0
  9 10  2  0  0  0  0
  9 58  1  0  0  0  0
 10 59  1  0  0  0  0
 11 13  1  0  0  0  0
 11 12  1  0  0  0  0
 12 15  1  0  0  0  0
 12 60  1  0  0  0  0
 12 61  1  0  0  0  0
 13 14  1  0  0  0  0
 13 16  1  0  0  0  0
 13 62  1  6  0  0  0
 14 15  1  0  0  0  0
 14 63  1  0  0  0  0
 14 64  1  0  0  0  0
 15 65  1  0  0  0  0
 15 66  1  0  0  0  0
 16 18  1  0  0  0  0
 16 17  2  0  0  0  0
 18 20  1  0  0  0  0
 18 67  1  0  0  0  0
 19 22  1  0  0  0  0
 19 25  1  0  0  0  0
 19 68  1  0  0  0  0
 19 69  1  0  0  0  0
 20 23  1  0  0  0  0
 20 21  1  0  0  0  0
 20 70  1  6  0  0  0
 21 22  1  0  0  0  0
 21 71  1  0  0  0  0
 21 72  1  0  0  0  0
 22 73  1  0  0  0  0
 22 74  1  0  0  0  0
 23 34  1  0  0  0  0
 23 24  2  0  0  0  0
 25 26  1  0  0  0  0
 25 75  1  0  0  0  0
 25 76  1  0  0  0  0
 26 77  1  0  0  0  0
 26 78  1  0  0  0  0
 26104  1  0  0  0  0
 27 38  1  0  0  0  0
 27 79  1  0  0  0  0
 27 80  1  0  0  0  0
 28 43  2  0  0  0  0
 29 43  1  0  0  0  0
 30 38  1  0  0  0  0
 30 40  2  0  0  0  0
 30 46  1  0  0  0  0
 31 37  1  0  0  0  0
 31 32  2  0  0  0  0
 31 81  1  0  0  0  0
 32 33  1  0  0  0  0
 32 82  1  0  0  0  0
 33 42  2  0  0  0  0
 33 83  1  0  0  0  0
 34 35  1  0  0  0  0
 34 84  1  0  0  0  0
 35 43  1  0  0  0  0
 35 36  1  0  0  0  0
 35 85  1  1  0  0  0
 36 37  1  0  0  0  0
 36 86  1  0  0  0  0
 36 87  1  0  0  0  0
 37 41  2  0  0  0  0
 38 39  1  0  0  0  0
 38 88  1  6  0  0  0
 39 89  1  0  0  0  0
 39 90  1  0  0  0  0
 39 91  1  0  0  0  0
 41 42  1  0  0  0  0
 41 92  1  0  0  0  0
 42 93  1  0  0  0  0
 43 27  1  1  0  0  0
 44 45  1  0  0  0  0
 44 94  1  0  0  0  0
 44 95  1  0  0  0  0
 44 96  1  0  0  0  0
 45 51  1  0  0  0  0
 46 48  1  0  0  0  0
 46 47  1  0  0  0  0
 47 50  1  0  0  0  0
 47 97  1  0  0  0  0
 47 98  1  0  0  0  0
 48 49  1  0  0  0  0
 48 51  1  0  0  0  0
 48 99  1  1  0  0  0
 49 50  1  0  0  0  0
 49100  1  0  0  0  0
 49101  1  0  0  0  0
 50102  1  0  0  0  0
 50103  1  0  0  0  0
 51 52  2  0  0  0  0
M  CHG  1  26   1
M  END
$$$$
