PLU
 OpenBabel04041915303D

 23 22  0  0  1  0  0  0  0  0999 V2000
   -1.8227   58.9766   45.1626 C   0  0  2  0  0  0  0  0  0  0  0  0
   -2.4575   59.5461   43.9040 C   0  0  0  0  0  0  0  0  0  0  0  0
   -3.8954   59.0795   43.6217 C   0  0  0  0  0  0  0  0  0  0  0  0
   -4.0199   57.5578   43.5538 C   0  0  0  0  0  0  0  0  0  0  0  0
   -4.3886   59.6933   42.3095 C   0  0  0  0  0  0  0  0  0  0  0  0
   -2.6488   59.2881   46.3756 N   0  3  0  0  0  0  0  0  0  0  0  0
   -0.0683   59.8296   45.5466 P   0  0  0  0  0  0  0  0  0  0  0  0
    0.0495   59.2264   46.9532 O   0  0  0  0  0  0  0  0  0  0  0  0
   -0.5497   61.2728   45.5651 O   0  0  0  0  0  0  0  0  0  0  0  0
    0.7953   59.3200   44.4322 O   0  0  0  0  0  0  0  0  0  0  0  0
   -1.6361   57.8985   45.1480 H   0  0  0  0  0  0  0  0  0  0  0  0
   -1.8096   59.2942   43.0554 H   0  0  0  0  0  0  0  0  0  0  0  0
   -2.4534   60.6425   43.9623 H   0  0  0  0  0  0  0  0  0  0  0  0
   -4.5512   59.4441   44.4218 H   0  0  0  0  0  0  0  0  0  0  0  0
   -5.0487   57.2681   43.3148 H   0  0  0  0  0  0  0  0  0  0  0  0
   -3.7657   57.0893   44.5094 H   0  0  0  0  0  0  0  0  0  0  0  0
   -3.3639   57.1403   42.7827 H   0  0  0  0  0  0  0  0  0  0  0  0
   -4.3072   60.7851   42.3302 H   0  0  0  0  0  0  0  0  0  0  0  0
   -5.4405   59.4398   42.1395 H   0  0  0  0  0  0  0  0  0  0  0  0
   -3.8090   59.3246   41.4569 H   0  0  0  0  0  0  0  0  0  0  0  0
   -3.5650   58.8847   46.4236 H   0  0  0  0  0  0  0  0  0  0  0  0
   -1.9867   59.0110   47.1314 H   0  0  0  0  0  0  0  0  0  0  0  0
   -2.5804   60.3193   46.4306 H   0  0  0  0  0  0  0  0  0  0  0  0
  1  7  1  0  0  0  0
  1  6  1  0  0  0  0
  1  2  1  0  0  0  0
  1 11  1  6  0  0  0
  2  3  1  0  0  0  0
  2 12  1  0  0  0  0
  2 13  1  0  0  0  0
  3  5  1  0  0  0  0
  3  4  1  0  0  0  0
  3 14  1  0  0  0  0
  4 15  1  0  0  0  0
  4 16  1  0  0  0  0
  4 17  1  0  0  0  0
  5 18  1  0  0  0  0
  5 19  1  0  0  0  0
  5 20  1  0  0  0  0
  6 21  1  0  0  0  0
  6 22  1  0  0  0  0
  6 23  1  0  0  0  0
  7 10  2  0  0  0  0
  7  9  1  0  0  0  0
  7  8  1  0  0  0  0
M  CHG  1   6   1
M  END
$$$$
