PLU
 OpenBabel04041914423D

 23 22  0  0  1  0  0  0  0  0999 V2000
   35.0739   -2.8859   41.6231 C   0  0  2  0  0  0  0  0  0  0  0  0
   34.0304   -2.7959   42.7252 C   0  0  0  0  0  0  0  0  0  0  0  0
   32.7922   -1.9583   42.3662 C   0  0  0  0  0  0  0  0  0  0  0  0
   31.7607   -2.1048   43.4848 C   0  0  0  0  0  0  0  0  0  0  0  0
   33.1159   -0.4791   42.1373 C   0  0  0  0  0  0  0  0  0  0  0  0
   34.5486   -3.5580   40.3983 N   0  3  0  0  0  0  0  0  0  0  0  0
   36.5321   -4.1663   42.0401 P   0  0  0  0  0  0  0  0  0  0  0  0
   35.6445   -5.4030   42.1196 O   0  0  0  0  0  0  0  0  0  0  0  0
   37.1725   -3.5912   43.2763 O   0  0  0  0  0  0  0  0  0  0  0  0
   37.1937   -4.0150   40.6706 O   0  0  0  0  0  0  0  0  0  0  0  0
   35.5440   -1.9386   41.3401 H   0  0  0  0  0  0  0  0  0  0  0  0
   34.5092   -2.3884   43.6253 H   0  0  0  0  0  0  0  0  0  0  0  0
   33.7111   -3.8094   42.9961 H   0  0  0  0  0  0  0  0  0  0  0  0
   32.3391   -2.3510   41.4470 H   0  0  0  0  0  0  0  0  0  0  0  0
   30.8730   -1.4965   43.2909 H   0  0  0  0  0  0  0  0  0  0  0  0
   32.1782   -1.8036   44.4510 H   0  0  0  0  0  0  0  0  0  0  0  0
   31.4374   -3.1501   43.5683 H   0  0  0  0  0  0  0  0  0  0  0  0
   33.8043   -0.3441   41.2962 H   0  0  0  0  0  0  0  0  0  0  0  0
   33.5666   -0.0255   43.0257 H   0  0  0  0  0  0  0  0  0  0  0  0
   32.2040    0.0790   41.9015 H   0  0  0  0  0  0  0  0  0  0  0  0
   35.4739   -3.7711   39.9413 H   0  0  0  0  0  0  0  0  0  0  0  0
   34.3323   -4.5143   40.7423 H   0  0  0  0  0  0  0  0  0  0  0  0
   33.8883   -3.0952   39.8015 H   0  0  0  0  0  0  0  0  0  0  0  0
  1  2  1  0  0  0  0
  1  6  1  0  0  0  0
  1  7  1  0  0  0  0
  1 11  1  6  0  0  0
  2  3  1  0  0  0  0
  2 12  1  0  0  0  0
  2 13  1  0  0  0  0
  3  4  1  0  0  0  0
  3  5  1  0  0  0  0
  3 14  1  0  0  0  0
  4 15  1  0  0  0  0
  4 16  1  0  0  0  0
  4 17  1  0  0  0  0
  5 18  1  0  0  0  0
  5 19  1  0  0  0  0
  5 20  1  0  0  0  0
  6 21  1  0  0  0  0
  6 22  1  0  0  0  0
  6 23  1  0  0  0  0
  7  8  2  0  0  0  0
  7  9  1  0  0  0  0
  7 10  1  0  0  0  0
M  CHG  1   6   1
M  END
$$$$
