PNF
 OpenBabel04041917493D

 48 48  0  0  0  0  0  0  0  0999 V2000
   11.7389   37.6527   61.5691 C   0  0  0  0  0  0  0  0  0  0  0  0
   11.5731   38.9444   61.0793 C   0  0  0  0  0  0  0  0  0  0  0  0
   10.3513   39.5944   61.2303 C   0  0  0  0  0  0  0  0  0  0  0  0
    9.2985   38.9239   61.8673 C   0  0  0  0  0  0  0  0  0  0  0  0
    9.4632   37.6109   62.3418 C   0  0  0  0  0  0  0  0  0  0  0  0
   10.6933   36.9699   62.1865 C   0  0  0  0  0  0  0  0  0  0  0  0
   14.1595   37.5736   62.4252 P   0  0  1  0  0  0  0  0  0  0  0  0
   12.9537   37.0439   61.4523 O   0  0  0  0  0  0  0  0  0  0  0  0
   14.4845   39.0193   62.1121 O   0  0  0  0  0  0  0  0  0  0  0  0
   13.8969   37.1006   63.8363 O   0  0  0  0  0  0  0  0  0  0  0  0
   15.4990   36.5548   61.7776 C   0  0  0  0  0  0  0  0  0  0  0  0
   16.0836   37.0076   60.4522 C   0  0  0  0  0  0  0  0  0  0  0  0
   17.2961   36.1369   60.1746 C   0  0  0  0  0  0  0  0  0  0  0  0
   17.6462   36.1076   58.7125 C   0  0  0  0  0  0  0  0  0  0  0  0
   17.2657   34.9462   58.0607 N   0  0  0  0  0  0  0  0  0  0  0  0
   18.2007   37.0421   58.1570 O   0  0  0  0  0  0  0  0  0  0  0  0
   17.5953   34.6932   56.6783 C   0  0  0  0  0  0  0  0  0  0  0  0
   16.6122   33.7116   56.0317 C   0  0  0  0  0  0  0  0  0  0  0  0
   17.2215   32.9133   54.8568 C   0  0  0  0  0  0  0  0  0  0  0  0
   17.0061   31.3890   54.9940 C   0  0  0  0  0  0  0  0  0  0  0  0
   16.7368   30.6581   53.6733 C   0  0  0  0  0  0  0  0  0  0  0  0
   15.7833   29.4531   53.7755 C   0  0  0  0  0  0  0  0  0  0  0  0
   15.7272   28.8710   54.8937 O   0  0  0  0  0  0  0  0  0  0  0  0
   15.1801   29.1682   52.6984 O   0  0  0  0  0  0  0  0  0  0  0  0
    8.0109   39.6015   62.0403 N   0  0  0  0  0  0  0  0  0  0  0  0
    7.9244   40.7894   61.6906 O   0  0  0  0  0  0  0  0  0  0  0  0
    7.0684   38.9480   62.5120 O   0  0  0  0  0  0  0  0  0  0  0  0
   12.4198   39.4511   60.6214 H   0  0  0  0  0  0  0  0  0  0  0  0
   10.2501   40.6126   60.8695 H   0  0  0  0  0  0  0  0  0  0  0  0
    8.6567   37.0861   62.8496 H   0  0  0  0  0  0  0  0  0  0  0  0
   10.8589   35.9741   62.5765 H   0  0  0  0  0  0  0  0  0  0  0  0
   15.1439   35.5234   61.6842 H   0  0  0  0  0  0  0  0  0  0  0  0
   16.2975   36.5596   62.5332 H   0  0  0  0  0  0  0  0  0  0  0  0
   16.3815   38.0623   60.5046 H   0  0  0  0  0  0  0  0  0  0  0  0
   15.3277   36.9379   59.6587 H   0  0  0  0  0  0  0  0  0  0  0  0
   17.1162   35.1158   60.5299 H   0  0  0  0  0  0  0  0  0  0  0  0
   18.1588   36.5086   60.7411 H   0  0  0  0  0  0  0  0  0  0  0  0
   16.9027   34.1774   58.6174 H   0  0  0  0  0  0  0  0  0  0  0  0
   18.6162   34.2964   56.6581 H   0  0  0  0  0  0  0  0  0  0  0  0
   17.5935   35.6470   56.1384 H   0  0  0  0  0  0  0  0  0  0  0  0
   15.7535   34.2882   55.6587 H   0  0  0  0  0  0  0  0  0  0  0  0
   16.2051   33.0350   56.7915 H   0  0  0  0  0  0  0  0  0  0  0  0
   18.2983   33.1098   54.7825 H   0  0  0  0  0  0  0  0  0  0  0  0
   16.7774   33.2803   53.9249 H   0  0  0  0  0  0  0  0  0  0  0  0
   16.1909   31.1919   55.6959 H   0  0  0  0  0  0  0  0  0  0  0  0
   17.9129   30.9609   55.4437 H   0  0  0  0  0  0  0  0  0  0  0  0
   17.6801   30.2743   53.2662 H   0  0  0  0  0  0  0  0  0  0  0  0
   16.3245   31.3459   52.9262 H   0  0  0  0  0  0  0  0  0  0  0  0
  1  8  1  0  0  0  0
  1  6  2  0  0  0  0
  1  2  1  0  0  0  0
  2  3  2  0  0  0  0
  2 28  1  0  0  0  0
  3  4  1  0  0  0  0
  3 29  1  0  0  0  0
  4 25  1  0  0  0  0
  4  5  2  0  0  0  0
  5  6  1  0  0  0  0
  5 30  1  0  0  0  0
  6 31  1  0  0  0  0
  7  8  1  6  0  0  0
  7  9  2  0  0  0  0
  7 10  1  0  0  0  0
  7 11  1  0  0  0  0
 11 12  1  0  0  0  0
 11 32  1  0  0  0  0
 11 33  1  0  0  0  0
 12 13  1  0  0  0  0
 12 34  1  0  0  0  0
 12 35  1  0  0  0  0
 13 14  1  0  0  0  0
 13 36  1  0  0  0  0
 13 37  1  0  0  0  0
 14 16  2  0  0  0  0
 14 15  1  0  0  0  0
 15 17  1  0  0  0  0
 15 38  1  0  0  0  0
 17 18  1  0  0  0  0
 17 39  1  0  0  0  0
 17 40  1  0  0  0  0
 18 19  1  0  0  0  0
 18 41  1  0  0  0  0
 18 42  1  0  0  0  0
 19 20  1  0  0  0  0
 19 43  1  0  0  0  0
 19 44  1  0  0  0  0
 20 21  1  0  0  0  0
 20 45  1  0  0  0  0
 20 46  1  0  0  0  0
 21 22  1  0  0  0  0
 21 47  1  0  0  0  0
 21 48  1  0  0  0  0
 22 24  2  0  0  0  0
 22 23  1  0  0  0  0
 25 27  2  0  0  0  0
 25 26  2  0  0  0  0
M  END
$$$$
