PPG
 OpenBabel04041915433D

 47 47  0  0  1  0  0  0  0  0999 V2000
   23.2962    2.3188   18.8694 N   0  0  0  0  0  0  0  0  0  0  0  0
   22.1607    1.9907   18.2210 C   0  0  0  0  0  0  0  0  0  0  0  0
   22.0354    2.5812   16.8491 C   0  0  0  0  0  0  0  0  0  0  0  0
   21.1831    1.1754   18.8055 C   0  0  0  0  0  0  0  0  0  0  0  0
   20.0628    0.7727   18.1247 O   0  0  0  0  0  0  0  0  0  0  0  0
   21.3364    0.7346   20.1327 C   0  0  0  0  0  0  0  0  0  0  0  0
   20.3159   -0.1182   20.8322 C   0  0  0  0  0  0  0  0  0  0  0  0
   22.5300    1.0613   20.8022 C   0  0  0  0  0  0  0  0  0  0  0  0
   23.4737    1.8197   20.1180 C   0  0  0  0  0  0  0  0  0  0  0  0
   22.8682    0.5754   22.1928 C   0  0  0  0  0  0  0  0  0  0  0  0
   22.9694   -0.8217   22.1419 O   0  0  0  0  0  0  0  0  0  0  0  0
   23.9553   -1.4988   23.2612 P   0  0  0  0  0  0  0  0  0  0  0  0
   25.1768   -1.8663   22.4485 O   0  0  0  0  0  0  0  0  0  0  0  0
   23.1080   -2.6619   23.7522 O   0  0  0  0  0  0  0  0  0  0  0  0
   24.1690   -0.4021   24.2964 O   0  0  0  0  0  0  0  0  0  0  0  0
   18.9505    0.1076   20.3090 N   0  3  0  0  0  0  0  0  0  0  0  0
   17.7249   -0.4684   20.9456 C   0  0  2  0  0  0  0  0  0  0  0  0
   16.4078    0.0783   20.2676 C   0  0  0  0  0  0  0  0  0  0  0  0
   16.6464    0.8728   19.3079 O   0  0  0  0  0  0  0  0  0  0  0  0
   15.3131   -0.3843   20.7039 O   0  0  0  0  0  0  0  0  0  0  0  0
   17.7014   -0.3868   22.4469 C   0  0  0  0  0  0  0  0  0  0  0  0
   16.8536   -1.1078   23.1682 C   0  0  0  0  0  0  0  0  0  0  0  0
   16.9536   -1.2592   24.5168 O   0  0  0  0  0  0  0  0  0  0  0  0
   15.6991   -1.3672   25.1868 C   0  0  0  0  0  0  0  0  0  0  0  0
   15.5062   -2.8020   25.6809 C   0  0  0  0  0  0  0  0  0  0  0  0
   15.3629   -3.7311   24.5227 N   0  3  0  0  0  0  0  0  0  0  0  0
   21.0831    2.3596   16.3620 H   0  0  0  0  0  0  0  0  0  0  0  0
   22.8404    2.1989   16.2127 H   0  0  0  0  0  0  0  0  0  0  0  0
   22.1245    3.6705   16.9074 H   0  0  0  0  0  0  0  0  0  0  0  0
   20.2843    0.7135   17.1793 H   0  0  0  0  0  0  0  0  0  0  0  0
   20.2753    0.1367   21.8889 H   0  0  0  0  0  0  0  0  0  0  0  0
   20.5363   -1.1869   20.7148 H   0  0  0  0  0  0  0  0  0  0  0  0
   24.4355    2.0484   20.5722 H   0  0  0  0  0  0  0  0  0  0  0  0
   22.0665    0.8399   22.8913 H   0  0  0  0  0  0  0  0  0  0  0  0
   23.7822    1.0643   22.5410 H   0  0  0  0  0  0  0  0  0  0  0  0
   18.7552    1.1061   20.1374 H   0  0  0  0  0  0  0  0  0  0  0  0
   17.7704   -1.5339   20.6819 H   0  0  0  0  0  0  0  0  0  0  0  0
   18.4808    0.1914   22.9587 H   0  0  0  0  0  0  0  0  0  0  0  0
   16.0544   -1.6659   22.6910 H   0  0  0  0  0  0  0  0  0  0  0  0
   14.8549   -1.0457   24.5632 H   0  0  0  0  0  0  0  0  0  0  0  0
   15.7468   -0.6995   26.0499 H   0  0  0  0  0  0  0  0  0  0  0  0
   14.5951   -2.9010   26.2792 H   0  0  0  0  0  0  0  0  0  0  0  0
   16.3686   -3.1591   26.2480 H   0  0  0  0  0  0  0  0  0  0  0  0
   15.2277   -4.7033   24.8245 H   0  0  0  0  0  0  0  0  0  0  0  0
   14.5951   -3.4622   23.8909 H   0  0  0  0  0  0  0  0  0  0  0  0
   18.9417   -0.2081   19.3269 H   0  0  0  0  0  0  0  0  0  0  0  0
   16.2409   -3.6989   23.9732 H   0  0  0  0  0  0  0  0  0  0  0  0
  1  2  2  0  0  0  0
  1  9  1  0  0  0  0
  2  3  1  0  0  0  0
  2  4  1  0  0  0  0
  3 27  1  0  0  0  0
  3 28  1  0  0  0  0
  3 29  1  0  0  0  0
  4  5  1  0  0  0  0
  4  6  2  0  0  0  0
  5 30  1  0  0  0  0
  6  7  1  0  0  0  0
  6  8  1  0  0  0  0
  7 16  1  0  0  0  0
  7 31  1  0  0  0  0
  7 32  1  0  0  0  0
  8  9  2  0  0  0  0
  8 10  1  0  0  0  0
  9 33  1  0  0  0  0
 10 11  1  0  0  0  0
 10 34  1  0  0  0  0
 10 35  1  0  0  0  0
 11 12  1  0  0  0  0
 12 13  2  0  0  0  0
 12 14  1  0  0  0  0
 12 15  1  0  0  0  0
 16 17  1  0  0  0  0
 16 36  1  0  0  0  0
 16 46  1  0  0  0  0
 17 18  1  0  0  0  0
 17 21  1  0  0  0  0
 17 37  1  6  0  0  0
 18 19  2  0  0  0  0
 18 20  1  0  0  0  0
 21 22  2  0  0  0  0
 21 38  1  0  0  0  0
 22 23  1  0  0  0  0
 22 39  1  0  0  0  0
 23 24  1  0  0  0  0
 24 25  1  0  0  0  0
 24 40  1  0  0  0  0
 24 41  1  0  0  0  0
 25 26  1  0  0  0  0
 25 42  1  0  0  0  0
 25 43  1  0  0  0  0
 26 44  1  0  0  0  0
 26 45  1  0  0  0  0
 26 47  1  0  0  0  0
M  CHG  2  16   1  26   1
M  END
$$$$
