PPR
 OpenBabel04041915193D

 12 11  0  0  0  0  0  0  0  0999 V2000
   12.2216    8.3602    4.1907 C   0  0  0  0  0  0  0  0  0  0  0  0
   12.8841    8.9413    3.2465 O   0  0  0  0  0  0  0  0  0  0  0  0
   10.9589    8.5175    4.3463 O   0  0  0  0  0  0  0  0  0  0  0  0
   13.0161    7.6603    5.3073 C   0  0  0  0  0  0  0  0  0  0  0  0
   14.4731    7.4187    5.2313 C   0  0  0  0  0  0  0  0  0  0  0  0
   12.3495    7.3828    6.3310 O   0  0  0  0  0  0  0  0  0  0  0  0
   14.6550    5.5968    4.7794 P   0  0  0  0  0  0  0  0  0  0  0  0
   16.0235    5.5031    4.1031 O   0  0  0  0  0  0  0  0  0  0  0  0
   13.4808    5.3327    3.8462 O   0  0  0  0  0  0  0  0  0  0  0  0
   14.6038    4.8425    6.1095 O   0  0  0  0  0  0  0  0  0  0  0  0
   14.9035    7.6421    6.2275 H   0  0  0  0  0  0  0  0  0  0  0  0
   14.9597    8.0958    4.5182 H   0  0  0  0  0  0  0  0  0  0  0  0
  1  4  1  0  0  0  0
  1  3  2  0  0  0  0
  1  2  1  0  0  0  0
  4  6  2  0  0  0  0
  4  5  1  0  0  0  0
  5  7  1  0  0  0  0
  5 11  1  0  0  0  0
  5 12  1  0  0  0  0
  7 10  2  0  0  0  0
  7  9  1  0  0  0  0
  7  8  1  0  0  0  0
M  END
$$$$
