PR1
 OpenBabel04041914313D

 50 53  0  0  1  0  0  0  0  0999 V2000
   13.7558   -3.4241   25.1065 C   0  0  0  0  0  0  0  0  0  0  0  0
   14.1438   -3.5602   23.7611 C   0  0  0  0  0  0  0  0  0  0  0  0
   13.2841   -4.1542   22.8416 C   0  0  0  0  0  0  0  0  0  0  0  0
   12.0304   -4.6241   23.2298 C   0  0  0  0  0  0  0  0  0  0  0  0
   11.6629   -4.4726   24.5935 C   0  0  0  0  0  0  0  0  0  0  0  0
   12.4957   -3.8609   25.5686 C   0  0  0  0  0  0  0  0  0  0  0  0
   12.0667   -3.6897   26.9963 C   0  0  0  0  0  0  0  0  0  0  0  0
   10.8209   -3.9428   27.3562 N   0  0  0  0  0  0  0  0  0  0  0  0
   12.8997   -3.3037   27.9246 N   0  0  0  0  0  0  0  0  0  0  0  0
   11.0753   -5.2749   22.2365 C   0  0  0  0  0  0  0  0  0  0  0  0
   13.6660   -4.2693   21.5385 O   0  0  0  0  0  0  0  0  0  0  0  0
   12.9058  -13.0549   24.0643 C   0  0  0  0  0  0  0  0  0  0  0  0
   13.9002  -13.4937   24.9558 C   0  0  0  0  0  0  0  0  0  0  0  0
   15.0551  -14.0648   24.4231 C   0  0  0  0  0  0  0  0  0  0  0  0
   15.1754  -14.1781   23.0519 C   0  0  0  0  0  0  0  0  0  0  0  0
   14.2423  -13.7634   22.1635 N   0  0  0  0  0  0  0  0  0  0  0  0
   13.1049  -13.2069   22.6892 C   0  0  0  0  0  0  0  0  0  0  0  0
   11.9885  -12.7036   21.9519 C   0  0  0  0  0  0  0  0  0  0  0  0
   10.9754  -12.1880   22.7429 C   0  0  0  0  0  0  0  0  0  0  0  0
   11.3820  -12.3008   24.4010 S   0  0  0  0  0  0  0  0  0  0  0  0
   11.1425   -6.7324   22.2343 N   0  0  0  0  0  0  0  0  0  0  0  0
   10.0076   -7.5577   22.3000 C   0  0  0  0  0  0  0  0  0  0  0  0
   10.5184   -8.9863   22.2916 C   0  0  2  0  0  0  0  0  0  0  0  0
   11.8261   -8.8578   21.5402 C   0  0  0  0  0  0  0  0  0  0  0  0
   12.3194   -7.4732   21.8657 C   0  0  0  0  0  0  0  0  0  0  0  0
    9.7893   -9.9764   21.5472 N   0  0  0  0  0  0  0  0  0  0  0  0
    9.4212  -11.4230   22.2545 S   0  0  0  0  0  0  0  0  0  0  0  0
    8.6731  -11.1157   23.4506 O   0  0  0  0  0  0  0  0  0  0  0  0
    8.9249  -12.2507   21.1819 O   0  0  0  0  0  0  0  0  0  0  0  0
    8.8533   -7.1891   22.4302 O   0  0  0  0  0  0  0  0  0  0  0  0
   14.4616   -2.9406   25.7758 H   0  0  0  0  0  0  0  0  0  0  0  0
   15.1155   -3.1812   23.4377 H   0  0  0  0  0  0  0  0  0  0  0  0
   10.6788   -4.8461   24.8629 H   0  0  0  0  0  0  0  0  0  0  0  0
   10.4797   -3.8448   28.3038 H   0  0  0  0  0  0  0  0  0  0  0  0
   10.1108   -4.2349   26.6955 H   0  0  0  0  0  0  0  0  0  0  0  0
   12.6191   -3.1844   28.9100 H   0  0  0  0  0  0  0  0  0  0  0  0
   11.2668   -4.9278   21.2142 H   0  0  0  0  0  0  0  0  0  0  0  0
   10.0505   -4.9623   22.4777 H   0  0  0  0  0  0  0  0  0  0  0  0
   14.5022   -4.7672   21.5120 H   0  0  0  0  0  0  0  0  0  0  0  0
   13.7831  -13.3993   26.0296 H   0  0  0  0  0  0  0  0  0  0  0  0
   15.8453  -14.4156   25.0808 H   0  0  0  0  0  0  0  0  0  0  0  0
   16.0816  -14.6278   22.6322 H   0  0  0  0  0  0  0  0  0  0  0  0
   11.9024  -12.7048   20.8720 H   0  0  0  0  0  0  0  0  0  0  0  0
   10.6547   -9.2747   23.3446 H   0  0  0  0  0  0  0  0  0  0  0  0
   11.6394   -8.9506   20.4583 H   0  0  0  0  0  0  0  0  0  0  0  0
   12.5218   -9.6528   21.8159 H   0  0  0  0  0  0  0  0  0  0  0  0
   13.0096   -7.5094   22.7088 H   0  0  0  0  0  0  0  0  0  0  0  0
   12.8051   -7.0327   20.9904 H   0  0  0  0  0  0  0  0  0  0  0  0
    9.6796   -9.8971   20.5386 H   0  0  0  0  0  0  0  0  0  0  0  0
   13.8646   -3.1133   27.7274 H   0  0  0  0  0  0  0  0  0  0  0  0
  1  6  2  0  0  0  0
  1  2  1  0  0  0  0
  1 31  1  0  0  0  0
  2  3  2  0  0  0  0
  2 32  1  0  0  0  0
  3 11  1  0  0  0  0
  3  4  1  0  0  0  0
  4 10  1  0  0  0  0
  4  5  2  0  0  0  0
  5  6  1  0  0  0  0
  5 33  1  0  0  0  0
  6  7  1  0  0  0  0
  7  9  2  0  0  0  0
  7  8  1  0  0  0  0
  8 34  1  0  0  0  0
  8 35  1  0  0  0  0
  9 36  1  0  0  0  0
  9 50  1  0  0  0  0
 10 21  1  0  0  0  0
 10 37  1  0  0  0  0
 10 38  1  0  0  0  0
 11 39  1  0  0  0  0
 12 17  1  0  0  0  0
 12 20  1  0  0  0  0
 12 13  2  0  0  0  0
 13 14  1  0  0  0  0
 13 40  1  0  0  0  0
 14 15  2  0  0  0  0
 14 41  1  0  0  0  0
 15 16  1  0  0  0  0
 15 42  1  0  0  0  0
 16 17  2  0  0  0  0
 17 18  1  0  0  0  0
 18 19  2  0  0  0  0
 18 43  1  0  0  0  0
 19 27  1  0  0  0  0
 19 20  1  0  0  0  0
 21 25  1  0  0  0  0
 21 22  1  0  0  0  0
 22 30  2  0  0  0  0
 22 23  1  0  0  0  0
 23 26  1  0  0  0  0
 23 24  1  0  0  0  0
 23 44  1  1  0  0  0
 24 25  1  0  0  0  0
 24 45  1  0  0  0  0
 24 46  1  0  0  0  0
 25 47  1  0  0  0  0
 25 48  1  0  0  0  0
 26 27  1  0  0  0  0
 26 49  1  0  0  0  0
 27 29  2  0  0  0  0
 27 28  2  0  0  0  0
M  END
$$$$
