PR2
 OpenBabel04041914313D

 46 50  0  0  1  0  0  0  0  0999 V2000
    7.5818    1.0282   19.3182 C   0  0  0  0  0  0  0  0  0  0  0  0
    8.9082    0.8353   18.9170 C   0  0  0  0  0  0  0  0  0  0  0  0
    9.1220    0.3506   17.6332 C   0  0  0  0  0  0  0  0  0  0  0  0
    8.0256    0.0990   16.8252 C   0  0  0  0  0  0  0  0  0  0  0  0
    6.7411    0.2909   17.1729 N   0  0  0  0  0  0  0  0  0  0  0  0
    6.5463    0.7511   18.4282 C   0  0  0  0  0  0  0  0  0  0  0  0
    5.2662    1.0237   18.9960 C   0  0  0  0  0  0  0  0  0  0  0  0
    5.3469    1.5007   20.2836 C   0  0  0  0  0  0  0  0  0  0  0  0
    6.9665    1.5740   20.8216 S   0  0  0  0  0  0  0  0  0  0  0  0
    5.3975    6.7814   22.2971 N   0  0  0  0  0  0  0  0  0  0  0  0
    4.8387    5.5808   22.7038 C   0  0  0  0  0  0  0  0  0  0  0  0
    5.1930    4.5373   21.6640 C   0  0  2  0  0  0  0  0  0  0  0  0
    5.7100    5.3596   20.4839 C   0  0  0  0  0  0  0  0  0  0  0  0
    6.1926    6.6515   21.1024 C   0  0  0  0  0  0  0  0  0  0  0  0
    4.0691    3.7470   21.1865 N   0  0  0  0  0  0  0  0  0  0  0  0
    4.0748    2.0977   21.3720 S   0  0  0  0  0  0  0  0  0  0  0  0
    2.8410    1.6245   20.7908 O   0  0  0  0  0  0  0  0  0  0  0  0
    4.4790    1.7619   22.7172 O   0  0  0  0  0  0  0  0  0  0  0  0
    4.2049    5.3961   23.7305 O   0  0  0  0  0  0  0  0  0  0  0  0
    5.3998    7.9804   23.1034 C   0  0  0  0  0  0  0  0  0  0  0  0
    8.3451    7.7810   25.2930 C   0  0  0  0  0  0  0  0  0  0  0  0
    8.8503    8.6695   24.3399 C   0  0  0  0  0  0  0  0  0  0  0  0
   10.1578    9.1415   24.4896 C   0  0  0  0  0  0  0  0  0  0  0  0
   10.8582    8.6833   25.5941 C   0  0  0  0  0  0  0  0  0  0  0  0
   10.3647    7.8237   26.5140 N   0  0  0  0  0  0  0  0  0  0  0  0
    9.1023    7.3627   26.3786 C   0  0  0  0  0  0  0  0  0  0  0  0
    7.8230    8.8837   23.3871 C   0  0  0  0  0  0  0  0  0  0  0  0
    6.7272    8.1281   23.7535 C   0  0  1  0  0  0  0  0  0  0  0  0
    7.0560    7.4660   24.9158 N   0  3  0  0  0  0  0  0  0  0  0  0
    9.7390    1.0494   19.5844 H   0  0  0  0  0  0  0  0  0  0  0  0
   10.1270    0.1661   17.2654 H   0  0  0  0  0  0  0  0  0  0  0  0
    8.1677   -0.2917   15.8180 H   0  0  0  0  0  0  0  0  0  0  0  0
    4.3270    0.8995   18.4703 H   0  0  0  0  0  0  0  0  0  0  0  0
    5.9984    3.9361   22.0942 H   0  0  0  0  0  0  0  0  0  0  0  0
    4.9030    5.5707   19.7698 H   0  0  0  0  0  0  0  0  0  0  0  0
    6.4987    4.8416   19.9286 H   0  0  0  0  0  0  0  0  0  0  0  0
    7.2523    6.5921   21.3672 H   0  0  0  0  0  0  0  0  0  0  0  0
    6.0174    7.5040   20.4405 H   0  0  0  0  0  0  0  0  0  0  0  0
    3.1523    4.1794   21.0860 H   0  0  0  0  0  0  0  0  0  0  0  0
    4.6033    7.9260   23.8527 H   0  0  0  0  0  0  0  0  0  0  0  0
    5.1892    8.8273   22.4421 H   0  0  0  0  0  0  0  0  0  0  0  0
   10.6053    9.8326   23.7847 H   0  0  0  0  0  0  0  0  0  0  0  0
   11.8789    9.0103   25.7744 H   0  0  0  0  0  0  0  0  0  0  0  0
    8.7425    6.6784   27.1372 H   0  0  0  0  0  0  0  0  0  0  0  0
    7.8841    9.5235   22.5141 H   0  0  0  0  0  0  0  0  0  0  0  0
    6.4451    6.8304   25.4142 H   0  0  0  0  0  0  0  0  0  0  0  0
  1  9  1  0  0  0  0
  1  6  2  0  0  0  0
  1  2  1  0  0  0  0
  2  3  2  0  0  0  0
  2 30  1  0  0  0  0
  3  4  1  0  0  0  0
  3 31  1  0  0  0  0
  4  5  2  0  0  0  0
  4 32  1  0  0  0  0
  5  6  1  0  0  0  0
  6  7  1  0  0  0  0
  7  8  2  0  0  0  0
  7 33  1  0  0  0  0
  8 16  1  0  0  0  0
  8  9  1  0  0  0  0
 10 11  1  0  0  0  0
 10 20  1  0  0  0  0
 10 14  1  0  0  0  0
 11 12  1  0  0  0  0
 11 19  2  0  0  0  0
 12 15  1  0  0  0  0
 12 13  1  0  0  0  0
 12 34  1  1  0  0  0
 13 14  1  0  0  0  0
 13 35  1  0  0  0  0
 13 36  1  0  0  0  0
 14 37  1  0  0  0  0
 14 38  1  0  0  0  0
 15 16  1  0  0  0  0
 15 39  1  0  0  0  0
 16 18  2  0  0  0  0
 16 17  2  0  0  0  0
 20 40  1  0  0  0  0
 20 41  1  0  0  0  0
 21 22  1  0  0  0  0
 21 29  1  0  0  0  0
 21 26  2  0  0  0  0
 22 27  1  0  0  0  0
 22 23  2  0  0  0  0
 23 24  1  0  0  0  0
 23 42  1  0  0  0  0
 24 25  2  0  0  0  0
 24 43  1  0  0  0  0
 25 26  1  0  0  0  0
 26 44  1  0  0  0  0
 27 28  1  0  0  0  0
 27 45  1  0  0  0  0
 28 20  1  1  0  0  0
 28 29  1  0  0  0  0
 29 46  1  0  0  0  0
M  CHG  1  29   1
M  END
$$$$
