PRZ
 OpenBabel04041914213D

 26 26  0  0  0  0  0  0  0  0999 V2000
   -0.1031   24.6717   10.6041 N   0  0  0  0  0  0  0  0  0  0  0  0
   -0.4041   25.8375   11.2555 C   0  0  0  0  0  0  0  0  0  0  0  0
    0.6123   26.7348   11.6241 C   0  0  0  0  0  0  0  0  0  0  0  0
    1.9321   26.4549   11.5342 N   0  0  0  0  0  0  0  0  0  0  0  0
    2.2100   25.2640   10.9531 C   0  0  0  0  0  0  0  0  0  0  0  0
    1.2210   24.4284   10.4360 C   0  0  0  0  0  0  0  0  0  0  0  0
   -1.8601   26.0947   11.6897 C   0  0  0  0  0  0  0  0  0  0  0  0
   -1.9787   26.5919   13.1661 C   0  0  0  0  0  0  0  0  0  0  0  0
   -3.3254   27.0911   13.7049 C   0  0  0  0  0  0  0  0  0  0  0  0
   -1.2019   25.8040   14.2209 C   0  0  0  0  0  0  0  0  0  0  0  0
    0.1947   27.9748   12.0199 O   0  0  0  0  0  0  0  0  0  0  0  0
    1.1145   28.7900   12.7160 C   0  0  0  0  0  0  0  0  0  0  0  0
    3.2586   24.9937   10.9005 H   0  0  0  0  0  0  0  0  0  0  0  0
    1.4842   23.5397    9.8744 H   0  0  0  0  0  0  0  0  0  0  0  0
   -2.4683   25.1954   11.5045 H   0  0  0  0  0  0  0  0  0  0  0  0
   -2.2558   26.8717   11.0170 H   0  0  0  0  0  0  0  0  0  0  0  0
   -1.4582   27.5701   13.1656 H   0  0  0  0  0  0  0  0  0  0  0  0
   -3.2890   27.1970   14.7894 H   0  0  0  0  0  0  0  0  0  0  0  0
   -4.1785   26.4587   13.4439 H   0  0  0  0  0  0  0  0  0  0  0  0
   -3.5147   28.1047   13.3196 H   0  0  0  0  0  0  0  0  0  0  0  0
   -0.3662   25.2298   13.8085 H   0  0  0  0  0  0  0  0  0  0  0  0
   -1.8302   25.1230   14.8103 H   0  0  0  0  0  0  0  0  0  0  0  0
   -0.7623   26.5249   14.9169 H   0  0  0  0  0  0  0  0  0  0  0  0
    0.5454   29.6573   13.0753 H   0  0  0  0  0  0  0  0  0  0  0  0
    1.8700   29.1515   12.0176 H   0  0  0  0  0  0  0  0  0  0  0  0
    1.5594   28.2924   13.5775 H   0  0  0  0  0  0  0  0  0  0  0  0
  1  6  2  0  0  0  0
  1  2  1  0  0  0  0
  2  7  1  0  0  0  0
  2  3  2  0  0  0  0
  3 11  1  0  0  0  0
  3  4  1  0  0  0  0
  4  5  2  0  0  0  0
  5  6  1  0  0  0  0
  5 13  1  0  0  0  0
  6 14  1  0  0  0  0
  7  8  1  0  0  0  0
  7 15  1  0  0  0  0
  7 16  1  0  0  0  0
  8 10  1  0  0  0  0
  8  9  1  0  0  0  0
  8 17  1  0  0  0  0
  9 18  1  0  0  0  0
  9 19  1  0  0  0  0
  9 20  1  0  0  0  0
 10 21  1  0  0  0  0
 10 22  1  0  0  0  0
 10 23  1  0  0  0  0
 11 12  1  0  0  0  0
 12 24  1  0  0  0  0
 12 25  1  0  0  0  0
 12 26  1  0  0  0  0
M  END
$$$$
