PT1
 OpenBabel04041914053D

 34 36  0  0  0  0  0  0  0  0999 V2000
    0.6304    0.6783   10.7102 C   0  0  0  0  0  0  0  0  0  0  0  0
    0.7970    1.2848    9.3770 C   0  0  0  0  0  0  0  0  0  0  0  0
    2.0992    1.4769    8.9246 C   0  0  0  0  0  0  0  0  0  0  0  0
   -0.3088    1.5956    8.6486 N   0  0  0  0  0  0  0  0  0  0  0  0
    3.0466    0.5853   10.8411 C   0  0  0  0  0  0  0  0  0  0  0  0
    3.2339    1.1042    9.6712 N   0  0  0  0  0  0  0  0  0  0  0  0
   -0.0541    2.1916    7.4585 C   0  0  0  0  0  0  0  0  0  0  0  0
    4.0963    0.1733   11.5866 N   0  0  0  0  0  0  0  0  0  0  0  0
    1.2565    2.3775    7.0039 C   0  0  0  0  0  0  0  0  0  0  0  0
   -0.1323    7.7337   10.9149 C   0  0  0  0  0  0  0  0  0  0  0  0
    0.9925    8.3352   10.9400 O   0  0  0  0  0  0  0  0  0  0  0  0
   -0.4589    0.3872   11.1971 O   0  0  0  0  0  0  0  0  0  0  0  0
    1.8052    0.4024   11.3774 N   0  3  0  0  0  0  0  0  0  0  0  0
    2.3545    1.9984    7.7110 N   0  0  0  0  0  0  0  0  0  0  0  0
   -1.2245    2.7555    6.6832 C   0  0  0  0  0  0  0  0  0  0  0  0
   -1.1312    4.1960    6.5115 N   0  0  0  0  0  0  0  0  0  0  0  0
   -0.9032    5.0414    7.5870 C   0  0  0  0  0  0  0  0  0  0  0  0
    0.1527    5.9584    7.5383 C   0  0  0  0  0  0  0  0  0  0  0  0
   -1.6461    4.9519    8.7670 C   0  0  0  0  0  0  0  0  0  0  0  0
    0.4233    6.8023    8.6213 C   0  0  0  0  0  0  0  0  0  0  0  0
   -1.4022    5.8201    9.8356 C   0  0  0  0  0  0  0  0  0  0  0  0
   -0.3701    6.7662    9.7735 C   0  0  0  0  0  0  0  0  0  0  0  0
   -1.0742    7.8806   11.7574 O   0  0  0  0  0  0  0  0  0  0  0  0
    4.9910    0.5433   11.2777 H   0  0  0  0  0  0  0  0  0  0  0  0
    3.9985    0.0601   12.5857 H   0  0  0  0  0  0  0  0  0  0  0  0
    1.4600    2.8760    6.0657 H   0  0  0  0  0  0  0  0  0  0  0  0
    1.6917   -0.0268   12.2857 H   0  0  0  0  0  0  0  0  0  0  0  0
   -2.1657    2.4966    7.1809 H   0  0  0  0  0  0  0  0  0  0  0  0
   -1.2523    2.2796    5.6967 H   0  0  0  0  0  0  0  0  0  0  0  0
   -1.0856    4.5944    5.5836 H   0  0  0  0  0  0  0  0  0  0  0  0
    0.8001    6.0069    6.6686 H   0  0  0  0  0  0  0  0  0  0  0  0
   -2.4568    4.2371    8.8558 H   0  0  0  0  0  0  0  0  0  0  0  0
    1.2529    7.5064    8.5718 H   0  0  0  0  0  0  0  0  0  0  0  0
   -2.0230    5.7704   10.7289 H   0  0  0  0  0  0  0  0  0  0  0  0
  1 13  1  0  0  0  0
  1 12  2  0  0  0  0
  1  2  1  0  0  0  0
  2  4  2  0  0  0  0
  2  3  1  0  0  0  0
  3 14  2  0  0  0  0
  3  6  1  0  0  0  0
  4  7  1  0  0  0  0
  5  6  2  0  0  0  0
  5  8  1  0  0  0  0
  5 13  1  0  0  0  0
  7  9  2  0  0  0  0
  7 15  1  0  0  0  0
  8 24  1  0  0  0  0
  8 25  1  0  0  0  0
  9 14  1  0  0  0  0
  9 26  1  0  0  0  0
 10 22  1  0  0  0  0
 10 23  2  0  0  0  0
 10 11  1  0  0  0  0
 13 27  1  0  0  0  0
 15 16  1  0  0  0  0
 15 28  1  0  0  0  0
 15 29  1  0  0  0  0
 16 17  1  0  0  0  0
 16 30  1  0  0  0  0
 17 19  2  0  0  0  0
 17 18  1  0  0  0  0
 18 20  2  0  0  0  0
 18 31  1  0  0  0  0
 19 21  1  0  0  0  0
 19 32  1  0  0  0  0
 20 22  1  0  0  0  0
 20 33  1  0  0  0  0
 21 22  2  0  0  0  0
 21 34  1  0  0  0  0
M  CHG  1  13   1
M  END
$$$$
