PUT
 OpenBabel04041913533D

 20 19  0  0  0  0  0  0  0  0999 V2000
  185.9135    8.1935   65.7902 N   0  3  0  0  0  0  0  0  0  0  0  0
  185.0357    7.2355   65.0744 C   0  0  0  0  0  0  0  0  0  0  0  0
  184.1002    7.9947   64.1315 C   0  0  0  0  0  0  0  0  0  0  0  0
  183.5001    7.0706   63.0786 C   0  0  0  0  0  0  0  0  0  0  0  0
  182.5131    7.8285   62.1827 C   0  0  0  0  0  0  0  0  0  0  0  0
  182.2765    7.0548   60.9515 N   0  3  0  0  0  0  0  0  0  0  0  0
  186.5558    7.7029   66.4343 H   0  0  0  0  0  0  0  0  0  0  0  0
  186.5085    8.7314   65.1431 H   0  0  0  0  0  0  0  0  0  0  0  0
  184.4647    6.6870   65.8321 H   0  0  0  0  0  0  0  0  0  0  0  0
  185.6852    6.5480   64.5243 H   0  0  0  0  0  0  0  0  0  0  0  0
  184.6512    8.7952   63.6266 H   0  0  0  0  0  0  0  0  0  0  0  0
  183.2959    8.4544   64.7144 H   0  0  0  0  0  0  0  0  0  0  0  0
  182.9711    6.2429   63.5619 H   0  0  0  0  0  0  0  0  0  0  0  0
  184.3019    6.6524   62.4613 H   0  0  0  0  0  0  0  0  0  0  0  0
  182.9152    8.8027   61.8854 H   0  0  0  0  0  0  0  0  0  0  0  0
  181.5470    7.9533   62.6874 H   0  0  0  0  0  0  0  0  0  0  0  0
  181.6097    7.5440   60.3239 H   0  0  0  0  0  0  0  0  0  0  0  0
  183.1350    6.9170   60.3982 H   0  0  0  0  0  0  0  0  0  0  0  0
  185.3820    8.8650   66.3562 H   0  0  0  0  0  0  0  0  0  0  0  0
  181.8700    6.1274   61.1341 H   0  0  0  0  0  0  0  0  0  0  0  0
  1  2  1  0  0  0  0
  1  7  1  0  0  0  0
  1  8  1  0  0  0  0
  1 19  1  0  0  0  0
  2  3  1  0  0  0  0
  2  9  1  0  0  0  0
  2 10  1  0  0  0  0
  3  4  1  0  0  0  0
  3 11  1  0  0  0  0
  3 12  1  0  0  0  0
  4  5  1  0  0  0  0
  4 13  1  0  0  0  0
  4 14  1  0  0  0  0
  5  6  1  0  0  0  0
  5 15  1  0  0  0  0
  5 16  1  0  0  0  0
  6 17  1  0  0  0  0
  6 18  1  0  0  0  0
  6 20  1  0  0  0  0
M  CHG  2   1   1   6   1
M  END
$$$$
