Q50
 OpenBabel04041915073D

 99101  0  0  1  0  0  0  0  0999 V2000
   -3.9698   14.6689   -7.6367 O   0  0  0  0  0  0  0  0  0  0  0  0
   -4.2739   15.8317   -7.7680 C   0  0  0  0  0  0  0  0  0  0  0  0
   -4.5596   16.3382   -9.0145 N   0  0  0  0  0  0  0  0  0  0  0  0
   -4.4785   16.8575   -6.6239 C   0  0  2  0  0  0  0  0  0  0  0  0
   -3.1742   17.2990   -5.9483 C   0  0  0  0  0  0  0  0  0  0  0  0
   -2.2876   16.2324   -5.3321 C   0  0  0  0  0  0  0  0  0  0  0  0
   -2.6278   15.5855   -4.1443 C   0  0  0  0  0  0  0  0  0  0  0  0
   -1.7701   14.6427   -3.5566 C   0  0  0  0  0  0  0  0  0  0  0  0
   -0.5595   14.3077   -4.1487 C   0  0  0  0  0  0  0  0  0  0  0  0
   -0.2094   14.9341   -5.3354 C   0  0  0  0  0  0  0  0  0  0  0  0
   -1.0597   15.8904   -5.9141 C   0  0  0  0  0  0  0  0  0  0  0  0
   -5.4392   16.3160   -5.6683 N   0  0  0  0  0  0  0  0  0  0  0  0
   -6.4348   17.0899   -5.0893 C   0  0  0  0  0  0  0  0  0  0  0  0
   -6.5898   18.2427   -5.3528 O   0  0  0  0  0  0  0  0  0  0  0  0
   -7.3017   16.2078   -4.0970 C   0  0  2  0  0  0  0  0  0  0  0  0
   -8.6044   15.6304   -4.6156 C   0  0  0  0  0  0  0  0  0  0  0  0
   -8.3142   14.7468   -5.8007 C   0  0  0  0  0  0  0  0  0  0  0  0
   -8.3513   15.6607   -6.9793 C   0  0  0  0  0  0  0  0  0  0  0  0
   -9.0532   16.6852   -7.0135 O   0  0  0  0  0  0  0  0  0  0  0  0
   -7.5712   15.3536   -8.0209 N   0  0  0  0  0  0  0  0  0  0  0  0
   -7.6226   16.9374   -2.9153 N   0  0  0  0  0  0  0  0  0  0  0  0
   -7.5430   16.3021   -1.7124 C   0  0  0  0  0  0  0  0  0  0  0  0
   -7.2840   15.1474   -1.5750 O   0  0  0  0  0  0  0  0  0  0  0  0
   -7.8398   17.3035   -0.6052 C   0  0  2  0  0  0  0  0  0  0  0  0
   -6.5956   17.7855    0.1144 C   0  0  0  0  0  0  0  0  0  0  0  0
   -5.2995   17.8183   -0.6407 C   0  0  0  0  0  0  0  0  0  0  0  0
   -4.3099   16.8769   -0.3463 C   0  0  0  0  0  0  0  0  0  0  0  0
   -3.0916   16.9177   -1.0263 C   0  0  0  0  0  0  0  0  0  0  0  0
   -2.8313   17.8990   -1.9890 C   0  0  0  0  0  0  0  0  0  0  0  0
   -3.8170   18.8304   -2.2989 C   0  0  0  0  0  0  0  0  0  0  0  0
   -5.0400   18.7898   -1.6172 C   0  0  0  0  0  0  0  0  0  0  0  0
   -8.6934   16.5773    0.4009 C   0  0  0  0  0  0  0  0  0  0  0  0
  -10.1206   16.5018   -0.0800 C   0  0  2  0  0  0  0  0  0  0  0  0
  -10.5793   17.8192    0.2369 O   0  0  0  0  0  0  0  0  0  0  0  0
  -10.7409   15.2495    0.6236 C   0  0  1  0  0  0  0  0  0  0  0  0
  -10.7957   15.4317    2.1100 N   0  0  0  0  0  0  0  0  0  0  0  0
   -9.9493   14.6832    2.9551 C   0  0  0  0  0  0  0  0  0  0  0  0
   -9.2118   13.8711    2.4200 O   0  0  0  0  0  0  0  0  0  0  0  0
  -10.0560   14.9739    4.3114 O   0  0  0  0  0  0  0  0  0  0  0  0
   -9.0466   14.9710    5.4883 C   0  0  0  0  0  0  0  0  0  0  0  0
   -7.8287   15.8489    5.2115 C   0  0  0  0  0  0  0  0  0  0  0  0
   -8.5750   13.6293    6.0236 C   0  0  0  0  0  0  0  0  0  0  0  0
   -9.6984   15.5687    6.7616 C   0  0  0  0  0  0  0  0  0  0  0  0
  -12.0866   14.7924    0.0186 C   0  0  0  0  0  0  0  0  0  0  0  0
  -12.6914   13.5724    0.7023 C   0  0  0  0  0  0  0  0  0  0  0  0
  -13.7146   13.7367    1.6584 C   0  0  0  0  0  0  0  0  0  0  0  0
  -14.2775   12.6505    2.3396 C   0  0  0  0  0  0  0  0  0  0  0  0
  -13.8249   11.3603    2.0768 C   0  0  0  0  0  0  0  0  0  0  0  0
  -12.8215   11.1783    1.1208 C   0  0  0  0  0  0  0  0  0  0  0  0
  -12.2567   12.2675    0.4297 C   0  0  0  0  0  0  0  0  0  0  0  0
   -4.8406   17.3012   -9.1353 H   0  0  0  0  0  0  0  0  0  0  0  0
   -4.4802   15.7328   -9.8232 H   0  0  0  0  0  0  0  0  0  0  0  0
   -4.9329   17.7505   -7.0799 H   0  0  0  0  0  0  0  0  0  0  0  0
   -3.4434   18.0092   -5.1522 H   0  0  0  0  0  0  0  0  0  0  0  0
   -2.5774   17.8568   -6.6837 H   0  0  0  0  0  0  0  0  0  0  0  0
   -3.5553   15.8356   -3.6345 H   0  0  0  0  0  0  0  0  0  0  0  0
   -2.0548   14.1628   -2.6264 H   0  0  0  0  0  0  0  0  0  0  0  0
    0.0993   13.5684   -3.6927 H   0  0  0  0  0  0  0  0  0  0  0  0
    0.7297   14.6799   -5.8193 H   0  0  0  0  0  0  0  0  0  0  0  0
   -0.7416   16.3757   -6.8287 H   0  0  0  0  0  0  0  0  0  0  0  0
   -5.3007   15.3683   -5.3555 H   0  0  0  0  0  0  0  0  0  0  0  0
   -6.6783   15.3496   -3.8116 H   0  0  0  0  0  0  0  0  0  0  0  0
   -9.2865   16.4552   -4.8663 H   0  0  0  0  0  0  0  0  0  0  0  0
   -9.0998   15.0491   -3.8255 H   0  0  0  0  0  0  0  0  0  0  0  0
   -9.0828   13.9810   -5.9050 H   0  0  0  0  0  0  0  0  0  0  0  0
   -7.3317   14.2733   -5.7012 H   0  0  0  0  0  0  0  0  0  0  0  0
   -7.5664   15.9680   -8.8274 H   0  0  0  0  0  0  0  0  0  0  0  0
   -6.9702   14.5368   -8.0094 H   0  0  0  0  0  0  0  0  0  0  0  0
   -7.9749   17.8792   -2.9768 H   0  0  0  0  0  0  0  0  0  0  0  0
   -8.3890   18.1597   -1.0267 H   0  0  0  0  0  0  0  0  0  0  0  0
   -6.4638   17.1492    1.0029 H   0  0  0  0  0  0  0  0  0  0  0  0
   -6.8115   18.7975    0.4833 H   0  0  0  0  0  0  0  0  0  0  0  0
   -4.4742   16.1227    0.4258 H   0  0  0  0  0  0  0  0  0  0  0  0
   -2.3383   16.1677   -0.8099 H   0  0  0  0  0  0  0  0  0  0  0  0
   -1.8723   17.9169   -2.5092 H   0  0  0  0  0  0  0  0  0  0  0  0
   -3.6323   19.5835   -3.0641 H   0  0  0  0  0  0  0  0  0  0  0  0
   -5.7889   19.5420   -1.8405 H   0  0  0  0  0  0  0  0  0  0  0  0
   -8.6631   17.1288    1.3492 H   0  0  0  0  0  0  0  0  0  0  0  0
   -8.2944   15.5740    0.5618 H   0  0  0  0  0  0  0  0  0  0  0  0
  -10.1868   16.3635   -1.1646 H   0  0  0  0  0  0  0  0  0  0  0  0
  -11.5058   17.9430   -0.0037 H   0  0  0  0  0  0  0  0  0  0  0  0
  -10.0456   14.4196    0.3892 H   0  0  0  0  0  0  0  0  0  0  0  0
  -11.4327   16.1277    2.4546 H   0  0  0  0  0  0  0  0  0  0  0  0
   -7.1648   15.8760    6.0930 H   0  0  0  0  0  0  0  0  0  0  0  0
   -8.1414   16.8716    4.9880 H   0  0  0  0  0  0  0  0  0  0  0  0
   -7.2759   15.4405    4.3700 H   0  0  0  0  0  0  0  0  0  0  0  0
   -7.8724   13.7885    6.8659 H   0  0  0  0  0  0  0  0  0  0  0  0
   -8.0775   13.0782    5.2403 H   0  0  0  0  0  0  0  0  0  0  0  0
   -9.4309   13.0704    6.4049 H   0  0  0  0  0  0  0  0  0  0  0  0
   -8.9551   15.6202    7.5857 H   0  0  0  0  0  0  0  0  0  0  0  0
  -10.5156   14.9220    7.0979 H   0  0  0  0  0  0  0  0  0  0  0  0
  -10.0784   16.5704    6.5787 H   0  0  0  0  0  0  0  0  0  0  0  0
  -11.9565   14.5583   -1.0540 H   0  0  0  0  0  0  0  0  0  0  0  0
  -12.7950   15.6251    0.0851 H   0  0  0  0  0  0  0  0  0  0  0  0
  -14.0860   14.7353    1.8730 H   0  0  0  0  0  0  0  0  0  0  0  0
  -15.0640   12.8176    3.0733 H   0  0  0  0  0  0  0  0  0  0  0  0
  -14.2549   10.5109    2.6114 H   0  0  0  0  0  0  0  0  0  0  0  0
  -12.4691   10.1716    0.9116 H   0  0  0  0  0  0  0  0  0  0  0  0
  -11.4850   12.0859   -0.3192 H   0  0  0  0  0  0  0  0  0  0  0  0
  1  2  2  0  0  0  0
  2  4  1  0  0  0  0
  2  3  1  0  0  0  0
  3 51  1  0  0  0  0
  3 52  1  0  0  0  0
  4 12  1  0  0  0  0
  4  5  1  0  0  0  0
  4 53  1  6  0  0  0
  5  6  1  0  0  0  0
  5 54  1  0  0  0  0
  5 55  1  0  0  0  0
  6 11  2  0  0  0  0
  6  7  1  0  0  0  0
  7  8  2  0  0  0  0
  7 56  1  0  0  0  0
  8  9  1  0  0  0  0
  8 57  1  0  0  0  0
  9 10  2  0  0  0  0
  9 58  1  0  0  0  0
 10 11  1  0  0  0  0
 10 59  1  0  0  0  0
 11 60  1  0  0  0  0
 12 13  1  0  0  0  0
 12 61  1  0  0  0  0
 13 15  1  0  0  0  0
 13 14  2  0  0  0  0
 15 21  1  0  0  0  0
 15 16  1  0  0  0  0
 15 62  1  1  0  0  0
 16 17  1  0  0  0  0
 16 63  1  0  0  0  0
 16 64  1  0  0  0  0
 17 18  1  0  0  0  0
 17 65  1  0  0  0  0
 17 66  1  0  0  0  0
 18 20  1  0  0  0  0
 18 19  2  0  0  0  0
 20 67  1  0  0  0  0
 20 68  1  0  0  0  0
 21 22  1  0  0  0  0
 21 69  1  0  0  0  0
 22 24  1  0  0  0  0
 22 23  2  0  0  0  0
 24 32  1  0  0  0  0
 24 25  1  0  0  0  0
 24 70  1  6  0  0  0
 25 26  1  0  0  0  0
 25 71  1  0  0  0  0
 25 72  1  0  0  0  0
 26 31  2  0  0  0  0
 26 27  1  0  0  0  0
 27 28  2  0  0  0  0
 27 73  1  0  0  0  0
 28 29  1  0  0  0  0
 28 74  1  0  0  0  0
 29 30  2  0  0  0  0
 29 75  1  0  0  0  0
 30 31  1  0  0  0  0
 30 76  1  0  0  0  0
 31 77  1  0  0  0  0
 32 33  1  0  0  0  0
 32 78  1  0  0  0  0
 32 79  1  0  0  0  0
 33 35  1  0  0  0  0
 33 34  1  0  0  0  0
 33 80  1  6  0  0  0
 34 81  1  0  0  0  0
 35 44  1  0  0  0  0
 35 36  1  0  0  0  0
 35 82  1  6  0  0  0
 36 37  1  0  0  0  0
 36 83  1  0  0  0  0
 37 39  1  0  0  0  0
 37 38  2  0  0  0  0
 39 40  1  0  0  0  0
 40 43  1  0  0  0  0
 40 42  1  0  0  0  0
 40 41  1  0  0  0  0
 41 84  1  0  0  0  0
 41 85  1  0  0  0  0
 41 86  1  0  0  0  0
 42 87  1  0  0  0  0
 42 88  1  0  0  0  0
 42 89  1  0  0  0  0
 43 90  1  0  0  0  0
 43 91  1  0  0  0  0
 43 92  1  0  0  0  0
 44 45  1  0  0  0  0
 44 93  1  0  0  0  0
 44 94  1  0  0  0  0
 45 50  2  0  0  0  0
 45 46  1  0  0  0  0
 46 47  2  0  0  0  0
 46 95  1  0  0  0  0
 47 48  1  0  0  0  0
 47 96  1  0  0  0  0
 48 49  2  0  0  0  0
 48 97  1  0  0  0  0
 49 50  1  0  0  0  0
 49 98  1  0  0  0  0
 50 99  1  0  0  0  0
M  END
$$$$
