R11
 OpenBabel04041914443D

 58 62  0  0  0  0  0  0  0  0999 V2000
   -5.0000   10.0603   19.7506 N   0  0  0  0  0  0  0  0  0  0  0  0
   -3.0311   10.7249   18.9375 N   0  0  0  0  0  0  0  0  0  0  0  0
   -3.7549    9.7529   19.4851 C   0  0  0  0  0  0  0  0  0  0  0  0
   -3.1908    8.4170   19.7777 C   0  0  0  0  0  0  0  0  0  0  0  0
   -3.9338    7.4674   20.4996 C   0  0  0  0  0  0  0  0  0  0  0  0
   -3.4153    6.1885   20.7890 C   0  0  0  0  0  0  0  0  0  0  0  0
   -2.1469    5.7950   20.3633 C   0  0  0  0  0  0  0  0  0  0  0  0
   -1.3997    6.7479   19.6549 C   0  0  0  0  0  0  0  0  0  0  0  0
   -1.9080    8.0314   19.3636 C   0  0  0  0  0  0  0  0  0  0  0  0
   -1.5751    4.5718   20.6671 N   0  0  0  0  0  0  0  0  0  0  0  0
   -2.1134    3.5650   21.5855 C   0  0  0  0  0  0  0  0  0  0  0  0
   -3.3040    4.3834   23.6096 N   0  0  0  0  0  0  0  0  0  0  0  0
   -2.1840    3.9817   23.0238 C   0  0  0  0  0  0  0  0  0  0  0  0
   -1.1070    4.0204   23.8974 N   0  3  0  0  0  0  0  0  0  0  0  0
   -1.6111    4.5048   25.0999 C   0  0  0  0  0  0  0  0  0  0  0  0
   -2.9757    4.7254   24.8924 C   0  0  0  0  0  0  0  0  0  0  0  0
   -1.0322    4.7807   26.3373 C   0  0  0  0  0  0  0  0  0  0  0  0
   -1.8504    5.2859   27.3613 C   0  0  0  0  0  0  0  0  0  0  0  0
   -3.2269    5.4947   27.2100 C   0  0  0  0  0  0  0  0  0  0  0  0
   -3.7941    5.2336   25.9400 C   0  0  0  0  0  0  0  0  0  0  0  0
    0.2759    3.6469   23.6209 C   0  0  0  0  0  0  0  0  0  0  0  0
   -4.0617    6.0560   28.3645 C   0  0  0  0  0  0  0  0  0  0  0  0
   -3.5598    5.7710   29.7329 N   0  3  0  0  0  0  0  0  0  0  0  0
   -3.7462    4.6069   30.4686 C   0  0  0  0  0  0  0  0  0  0  0  0
   -3.1714    4.6815   31.6592 N   0  0  0  0  0  0  0  0  0  0  0  0
   -2.5930    5.9125   31.7363 C   0  0  0  0  0  0  0  0  0  0  0  0
   -2.8253    6.6228   30.5536 C   0  0  0  0  0  0  0  0  0  0  0  0
   -1.8506    6.4932   32.7887 C   0  0  0  0  0  0  0  0  0  0  0  0
   -1.3473    7.7844   32.6254 C   0  0  0  0  0  0  0  0  0  0  0  0
   -1.5849    8.4782   31.4365 C   0  0  0  0  0  0  0  0  0  0  0  0
   -2.3266    7.9132   30.3823 C   0  0  0  0  0  0  0  0  0  0  0  0
   -4.4842    3.4183   30.0046 C   0  0  0  0  0  0  0  0  0  0  0  0
   -5.3681   10.9790   19.5510 H   0  0  0  0  0  0  0  0  0  0  0  0
   -2.0729   10.6059   18.7019 H   0  0  0  0  0  0  0  0  0  0  0  0
   -3.4551   11.6227   18.7584 H   0  0  0  0  0  0  0  0  0  0  0  0
   -4.9304    7.6818   20.8688 H   0  0  0  0  0  0  0  0  0  0  0  0
   -4.0453    5.5034   21.3537 H   0  0  0  0  0  0  0  0  0  0  0  0
   -0.3919    6.4993   19.3194 H   0  0  0  0  0  0  0  0  0  0  0  0
   -1.2670    8.7059   18.8016 H   0  0  0  0  0  0  0  0  0  0  0  0
   -0.7641    4.2857   20.1346 H   0  0  0  0  0  0  0  0  0  0  0  0
   -1.4986    2.6574   21.5241 H   0  0  0  0  0  0  0  0  0  0  0  0
   -3.1168    3.2515   21.2655 H   0  0  0  0  0  0  0  0  0  0  0  0
    0.0224    4.6081   26.5178 H   0  0  0  0  0  0  0  0  0  0  0  0
   -1.3819    5.5072   28.3180 H   0  0  0  0  0  0  0  0  0  0  0  0
   -4.8568    5.4029   25.7510 H   0  0  0  0  0  0  0  0  0  0  0  0
    0.3984    3.2899   22.5920 H   0  0  0  0  0  0  0  0  0  0  0  0
    0.6037    2.8434   24.2917 H   0  0  0  0  0  0  0  0  0  0  0  0
    0.9415    4.5074   23.7551 H   0  0  0  0  0  0  0  0  0  0  0  0
   -5.0852    5.6654   28.2918 H   0  0  0  0  0  0  0  0  0  0  0  0
   -4.1269    7.1473   28.2465 H   0  0  0  0  0  0  0  0  0  0  0  0
   -1.6688    5.9512   33.7181 H   0  0  0  0  0  0  0  0  0  0  0  0
   -0.7734    8.2535   33.4263 H   0  0  0  0  0  0  0  0  0  0  0  0
   -1.1909    9.4826   31.3215 H   0  0  0  0  0  0  0  0  0  0  0  0
   -2.4961    8.4682   29.4704 H   0  0  0  0  0  0  0  0  0  0  0  0
   -4.4763    2.6438   30.7824 H   0  0  0  0  0  0  0  0  0  0  0  0
   -4.0136    3.0028   29.1103 H   0  0  0  0  0  0  0  0  0  0  0  0
   -5.5270    3.6709   29.7930 H   0  0  0  0  0  0  0  0  0  0  0  0
   -5.6391    9.3927   20.1554 H   0  0  0  0  0  0  0  0  0  0  0  0
  1  3  2  0  0  0  0
  1 33  1  0  0  0  0
  1 58  1  0  0  0  0
  2  3  1  0  0  0  0
  2 34  1  0  0  0  0
  2 35  1  0  0  0  0
  3  4  1  0  0  0  0
  4  5  2  0  0  0  0
  4  9  1  0  0  0  0
  5  6  1  0  0  0  0
  5 36  1  0  0  0  0
  6  7  2  0  0  0  0
  6 37  1  0  0  0  0
  7  8  1  0  0  0  0
  7 10  1  0  0  0  0
  8  9  2  0  0  0  0
  8 38  1  0  0  0  0
  9 39  1  0  0  0  0
 10 11  1  0  0  0  0
 10 40  1  0  0  0  0
 11 13  1  0  0  0  0
 11 41  1  0  0  0  0
 11 42  1  0  0  0  0
 12 16  1  0  0  0  0
 12 13  1  0  0  0  0
 13 14  2  0  0  0  0
 14 15  1  0  0  0  0
 14 21  1  0  0  0  0
 15 16  2  0  0  0  0
 15 17  1  0  0  0  0
 16 20  1  0  0  0  0
 17 18  2  0  0  0  0
 17 43  1  0  0  0  0
 18 19  1  0  0  0  0
 18 44  1  0  0  0  0
 19 20  2  0  0  0  0
 19 22  1  0  0  0  0
 20 45  1  0  0  0  0
 21 46  1  0  0  0  0
 21 47  1  0  0  0  0
 21 48  1  0  0  0  0
 22 23  1  0  0  0  0
 22 49  1  0  0  0  0
 22 50  1  0  0  0  0
 23 24  2  0  0  0  0
 23 27  1  0  0  0  0
 24 25  1  0  0  0  0
 24 32  1  0  0  0  0
 25 26  1  0  0  0  0
 26 27  2  0  0  0  0
 26 28  1  0  0  0  0
 27 31  1  0  0  0  0
 28 29  2  0  0  0  0
 28 51  1  0  0  0  0
 29 30  1  0  0  0  0
 29 52  1  0  0  0  0
 30 31  2  0  0  0  0
 30 53  1  0  0  0  0
 31 54  1  0  0  0  0
 32 55  1  0  0  0  0
 32 56  1  0  0  0  0
 32 57  1  0  0  0  0
M  CHG  2  14   1  23   1
M  END
$$$$
