R56
 OpenBabel04041914013D

 60 62  0  0  1  0  0  0  0  0999 V2000
   22.1558  -14.5879   25.7412 C   0  0  0  0  0  0  0  0  0  0  0  0
   22.1393  -15.9401   25.4105 C   0  0  0  0  0  0  0  0  0  0  0  0
   21.0035  -16.7043   25.6719 C   0  0  0  0  0  0  0  0  0  0  0  0
   19.8597  -16.1202   26.2396 C   0  0  0  0  0  0  0  0  0  0  0  0
   19.8892  -14.7575   26.5708 C   0  0  0  0  0  0  0  0  0  0  0  0
   21.0339  -13.9975   26.3219 C   0  0  0  0  0  0  0  0  0  0  0  0
   18.6117  -16.9408   26.4571 C   0  0  0  0  0  0  0  0  0  0  0  0
   17.8833  -17.3718   24.8673 S   0  0  0  0  0  0  0  0  0  0  0  0
   18.8309  -18.0974   24.0673 O   0  0  0  0  0  0  0  0  0  0  0  0
   16.5562  -17.9077   25.0977 O   0  0  0  0  0  0  0  0  0  0  0  0
   17.6621  -15.8701   24.1741 N   0  0  0  0  0  0  0  0  0  0  0  0
   18.0700  -15.6033   22.8004 C   0  0  1  0  0  0  0  0  0  0  0  0
   17.3354  -14.3380   22.3484 C   0  0  0  0  0  0  0  0  0  0  0  0
   16.3870  -13.8536   22.9698 O   0  0  0  0  0  0  0  0  0  0  0  0
   17.8062  -13.7976   21.1724 N   0  0  0  0  0  0  0  0  0  0  0  0
   19.0035  -14.3081   20.5387 C   0  0  2  0  0  0  0  0  0  0  0  0
   20.0973  -14.6075   21.5477 C   0  0  0  0  0  0  0  0  0  0  0  0
   19.5857  -15.4112   22.7377 C   0  0  0  0  0  0  0  0  0  0  0  0
   19.5559  -13.0083   19.4096 S   0  0  0  0  0  0  0  0  0  0  0  0
   17.8954  -12.3300   19.2484 C   0  0  0  0  0  0  0  0  0  0  0  0
   17.2285  -12.5791   20.5987 C   0  0  1  0  0  0  0  0  0  0  0  0
   15.7198  -12.7686   20.3459 C   0  0  0  0  0  0  0  0  0  0  0  0
   15.2469  -13.8166   19.9088 O   0  0  0  0  0  0  0  0  0  0  0  0
   14.9257  -11.6701   20.6074 N   0  0  0  0  0  0  0  0  0  0  0  0
   13.4903  -11.7694   20.4289 C   0  0  0  0  0  0  0  0  0  0  0  0
   12.7669  -10.6124   21.0895 C   0  0  0  0  0  0  0  0  0  0  0  0
   12.8881  -10.7216   22.5965 C   0  0  0  0  0  0  0  0  0  0  0  0
   12.0802  -11.8315   23.1207 N   0  0  0  0  0  0  0  0  0  0  0  0
   11.1992  -11.7000   24.1210 C   0  0  0  0  0  0  0  0  0  0  0  0
   10.9829  -10.5265   24.7208 N   0  0  0  0  0  0  0  0  0  0  0  0
   10.4968  -12.7580   24.5280 N   0  0  0  0  0  0  0  0  0  0  0  0
   23.0464  -13.9947   25.5502 H   0  0  0  0  0  0  0  0  0  0  0  0
   23.0043  -16.4029   24.9422 H   0  0  0  0  0  0  0  0  0  0  0  0
   21.0027  -17.7557   25.3855 H   0  0  0  0  0  0  0  0  0  0  0  0
   19.0228  -14.2734   27.0150 H   0  0  0  0  0  0  0  0  0  0  0  0
   21.0538  -12.9423   26.5805 H   0  0  0  0  0  0  0  0  0  0  0  0
   17.8498  -16.3741   27.0023 H   0  0  0  0  0  0  0  0  0  0  0  0
   18.8250  -17.8537   27.0090 H   0  0  0  0  0  0  0  0  0  0  0  0
   17.1875  -15.1420   24.6964 H   0  0  0  0  0  0  0  0  0  0  0  0
   17.7509  -16.4215   22.1411 H   0  0  0  0  0  0  0  0  0  0  0  0
   18.7329  -15.2090   19.9771 H   0  0  0  0  0  0  0  0  0  0  0  0
   20.5298  -13.6771   21.9409 H   0  0  0  0  0  0  0  0  0  0  0  0
   20.9219  -15.1513   21.0697 H   0  0  0  0  0  0  0  0  0  0  0  0
   20.0815  -16.3882   22.7353 H   0  0  0  0  0  0  0  0  0  0  0  0
   19.9280  -14.8981   23.6400 H   0  0  0  0  0  0  0  0  0  0  0  0
   17.3975  -12.8780   18.4419 H   0  0  0  0  0  0  0  0  0  0  0  0
   17.9263  -11.2691   18.9908 H   0  0  0  0  0  0  0  0  0  0  0  0
   17.4026  -11.7502   21.2959 H   0  0  0  0  0  0  0  0  0  0  0  0
   15.3429  -10.8197   20.9579 H   0  0  0  0  0  0  0  0  0  0  0  0
   13.1481  -12.7209   20.8551 H   0  0  0  0  0  0  0  0  0  0  0  0
   13.2747  -11.7976   19.3598 H   0  0  0  0  0  0  0  0  0  0  0  0
   11.7060  -10.6124   20.8059 H   0  0  0  0  0  0  0  0  0  0  0  0
   13.1962   -9.6588   20.7622 H   0  0  0  0  0  0  0  0  0  0  0  0
   12.5650   -9.7659   23.0066 H   0  0  0  0  0  0  0  0  0  0  0  0
   13.9197  -10.8801   22.9244 H   0  0  0  0  0  0  0  0  0  0  0  0
   12.2041  -12.7576   22.7352 H   0  0  0  0  0  0  0  0  0  0  0  0
   10.3121  -10.4340   25.4665 H   0  0  0  0  0  0  0  0  0  0  0  0
   11.4865   -9.6896   24.4636 H   0  0  0  0  0  0  0  0  0  0  0  0
    9.8308  -12.6755   25.2859 H   0  0  0  0  0  0  0  0  0  0  0  0
   10.6158  -13.6755   24.1187 H   0  0  0  0  0  0  0  0  0  0  0  0
  1  6  2  0  0  0  0
  1  2  1  0  0  0  0
  1 32  1  0  0  0  0
  2  3  2  0  0  0  0
  2 33  1  0  0  0  0
  3  4  1  0  0  0  0
  3 34  1  0  0  0  0
  4  7  1  0  0  0  0
  4  5  2  0  0  0  0
  5  6  1  0  0  0  0
  5 35  1  0  0  0  0
  6 36  1  0  0  0  0
  7  8  1  0  0  0  0
  7 37  1  0  0  0  0
  7 38  1  0  0  0  0
  8 11  1  0  0  0  0
  8 10  2  0  0  0  0
  8  9  2  0  0  0  0
 11 12  1  0  0  0  0
 11 39  1  0  0  0  0
 12 18  1  0  0  0  0
 12 13  1  0  0  0  0
 12 40  1  6  0  0  0
 13 15  1  0  0  0  0
 13 14  2  0  0  0  0
 15 21  1  0  0  0  0
 15 16  1  0  0  0  0
 16 19  1  0  0  0  0
 16 17  1  0  0  0  0
 16 41  1  6  0  0  0
 17 18  1  0  0  0  0
 17 42  1  0  0  0  0
 17 43  1  0  0  0  0
 18 44  1  0  0  0  0
 18 45  1  0  0  0  0
 19 20  1  0  0  0  0
 20 21  1  0  0  0  0
 20 46  1  0  0  0  0
 20 47  1  0  0  0  0
 21 22  1  0  0  0  0
 21 48  1  1  0  0  0
 22 24  1  0  0  0  0
 22 23  2  0  0  0  0
 24 25  1  0  0  0  0
 24 49  1  0  0  0  0
 25 26  1  0  0  0  0
 25 50  1  0  0  0  0
 25 51  1  0  0  0  0
 26 27  1  0  0  0  0
 26 52  1  0  0  0  0
 26 53  1  0  0  0  0
 27 28  1  0  0  0  0
 27 54  1  0  0  0  0
 27 55  1  0  0  0  0
 28 29  1  0  0  0  0
 28 56  1  0  0  0  0
 29 31  2  0  0  0  0
 29 30  1  0  0  0  0
 30 57  1  0  0  0  0
 30 58  1  0  0  0  0
 31 59  1  0  0  0  0
 31 60  1  0  0  0  0
M  END
$$$$
