R68
 OpenBabel04041917393D

 83 87  0  0  1  0  0  0  0  0999 V2000
    7.3697    9.4063    1.5318 O   0  0  0  0  0  0  0  0  0  0  0  0
    7.2108    9.3655    2.7360 C   0  0  0  0  0  0  0  0  0  0  0  0
    5.8424    9.4920    3.3658 C   0  0  0  0  0  0  0  0  0  0  0  0
    4.7253    9.5214    2.5218 C   0  0  0  0  0  0  0  0  0  0  0  0
    3.4617    9.6311    3.0793 C   0  0  0  0  0  0  0  0  0  0  0  0
    3.2454    9.6413    4.4147 N   0  0  0  0  0  0  0  0  0  0  0  0
    4.3359    9.5988    5.2169 C   0  0  0  0  0  0  0  0  0  0  0  0
    5.6388    9.5551    4.7427 C   0  0  0  0  0  0  0  0  0  0  0  0
    8.2986    9.1500    3.5634 N   0  0  0  0  0  0  0  0  0  0  0  0
    9.6369    8.8726    3.0271 C   0  0  2  0  0  0  0  0  0  0  0  0
    9.9624    7.4456    3.4648 C   0  0  0  0  0  0  0  0  0  0  0  0
   11.2630    6.9718    2.9294 N   0  3  0  0  0  0  0  0  0  0  0  0
   12.4199    7.1855    3.8470 C   0  0  0  0  0  0  0  0  0  0  0  0
   12.8128    8.6487    3.8307 C   0  0  0  0  0  0  0  0  0  0  0  0
   11.7451    9.5613    4.4457 C   0  0  0  0  0  0  0  0  0  0  0  0
   10.6381    9.9848    3.4562 C   0  0  1  0  0  0  0  0  0  0  0  0
   11.2531   10.6329    2.2774 N   0  0  0  0  0  0  0  0  0  0  0  0
   11.8187   11.8688    2.3321 C   0  0  0  0  0  0  0  0  0  0  0  0
   11.6766   12.5869    3.2977 O   0  0  0  0  0  0  0  0  0  0  0  0
   12.7202   12.2980    1.2239 C   0  0  0  0  0  0  0  0  0  0  0  0
   13.0917   13.6481    1.1350 C   0  0  0  0  0  0  0  0  0  0  0  0
   14.0391   14.0633    0.1940 C   0  0  0  0  0  0  0  0  0  0  0  0
   13.3274   11.3609    0.3880 C   0  0  0  0  0  0  0  0  0  0  0  0
   14.2886   11.7701   -0.5296 C   0  0  0  0  0  0  0  0  0  0  0  0
   14.6318   13.1167   -0.6464 C   0  0  0  0  0  0  0  0  0  0  0  0
   15.7332   13.5165   -1.5609 C   0  0  0  0  0  0  0  0  0  0  0  0
   16.2939   14.5706   -1.4024 O   0  0  0  0  0  0  0  0  0  0  0  0
   16.2499   12.5364   -2.5518 C   0  0  0  0  0  0  0  0  0  0  0  0
   15.5259   12.1882   -3.6719 C   0  0  0  0  0  0  0  0  0  0  0  0
   14.3262   12.7995   -3.8256 O   0  0  0  0  0  0  0  0  0  0  0  0
   16.0109   11.2541   -4.5923 C   0  0  0  0  0  0  0  0  0  0  0  0
   17.2498   10.6494   -4.3710 C   0  0  0  0  0  0  0  0  0  0  0  0
   17.9903   10.9654   -3.2243 C   0  0  0  0  0  0  0  0  0  0  0  0
   17.4671   11.9202   -2.3333 C   0  0  0  0  0  0  0  0  0  0  0  0
   18.1483   12.2312   -1.2285 F   0  0  0  0  0  0  0  0  0  0  0  0
   19.3520   10.3434   -3.0026 C   0  0  1  0  0  0  0  0  0  0  0  0
   20.5622   11.1903   -3.5037 C   0  0  0  0  0  0  0  0  0  0  0  0
   20.6682   12.5733   -2.8429 C   0  0  0  0  0  0  0  0  0  0  0  0
   20.4404   11.3841   -5.0217 C   0  0  0  0  0  0  0  0  0  0  0  0
   21.8911   10.4430   -3.2475 C   0  0  0  0  0  0  0  0  0  0  0  0
   22.0172    9.9561   -1.8047 C   0  0  0  0  0  0  0  0  0  0  0  0
   20.8023    9.1640   -1.3528 C   0  0  0  0  0  0  0  0  0  0  0  0
   19.5535    9.9513   -1.5643 N   0  3  0  0  0  0  0  0  0  0  0  0
    4.8289    9.4574    1.4469 H   0  0  0  0  0  0  0  0  0  0  0  0
    2.5737    9.7167    2.4482 H   0  0  0  0  0  0  0  0  0  0  0  0
    4.1293    9.6026    6.2893 H   0  0  0  0  0  0  0  0  0  0  0  0
    6.4534    9.5715    5.4484 H   0  0  0  0  0  0  0  0  0  0  0  0
    8.1856    9.1683    4.5634 H   0  0  0  0  0  0  0  0  0  0  0  0
    9.6011    8.8749    1.9264 H   0  0  0  0  0  0  0  0  0  0  0  0
    9.1825    6.7607    3.1018 H   0  0  0  0  0  0  0  0  0  0  0  0
   10.0026    7.3761    4.5529 H   0  0  0  0  0  0  0  0  0  0  0  0
   11.1696    5.9659    2.7147 H   0  0  0  0  0  0  0  0  0  0  0  0
   13.2433    6.5571    3.4900 H   0  0  0  0  0  0  0  0  0  0  0  0
   12.1264    6.8652    4.8486 H   0  0  0  0  0  0  0  0  0  0  0  0
   13.0178    8.9495    2.7984 H   0  0  0  0  0  0  0  0  0  0  0  0
   13.7462    8.7437    4.3991 H   0  0  0  0  0  0  0  0  0  0  0  0
   12.2420   10.4699    4.8211 H   0  0  0  0  0  0  0  0  0  0  0  0
   11.2830    9.0685    5.3081 H   0  0  0  0  0  0  0  0  0  0  0  0
   10.0470   10.7599    3.9545 H   0  0  0  0  0  0  0  0  0  0  0  0
   11.2537   10.1116    1.4053 H   0  0  0  0  0  0  0  0  0  0  0  0
   12.6542   14.3847    1.8085 H   0  0  0  0  0  0  0  0  0  0  0  0
   14.3233   15.1141    0.1405 H   0  0  0  0  0  0  0  0  0  0  0  0
   13.0884   10.3093    0.4548 H   0  0  0  0  0  0  0  0  0  0  0  0
   14.7843   11.0258   -1.1419 H   0  0  0  0  0  0  0  0  0  0  0  0
   13.9202   12.4918   -4.6484 H   0  0  0  0  0  0  0  0  0  0  0  0
   15.4322   11.0087   -5.4816 H   0  0  0  0  0  0  0  0  0  0  0  0
   17.6404    9.9497   -5.1102 H   0  0  0  0  0  0  0  0  0  0  0  0
   19.3690    9.3840   -3.5418 H   0  0  0  0  0  0  0  0  0  0  0  0
   21.5187   13.1370   -3.2536 H   0  0  0  0  0  0  0  0  0  0  0  0
   20.8216   12.4737   -1.7651 H   0  0  0  0  0  0  0  0  0  0  0  0
   19.7657   13.1671   -3.0112 H   0  0  0  0  0  0  0  0  0  0  0  0
   20.3583   10.4091   -5.5218 H   0  0  0  0  0  0  0  0  0  0  0  0
   21.3232   11.9004   -5.4130 H   0  0  0  0  0  0  0  0  0  0  0  0
   19.5546   11.9782   -5.2662 H   0  0  0  0  0  0  0  0  0  0  0  0
   22.7339   11.1130   -3.4873 H   0  0  0  0  0  0  0  0  0  0  0  0
   21.9606    9.5809   -3.9277 H   0  0  0  0  0  0  0  0  0  0  0  0
   22.1676   10.8170   -1.1404 H   0  0  0  0  0  0  0  0  0  0  0  0
   22.9045    9.3164   -1.7145 H   0  0  0  0  0  0  0  0  0  0  0  0
   20.8596    8.9167   -0.2883 H   0  0  0  0  0  0  0  0  0  0  0  0
   20.6949    8.2462   -1.9361 H   0  0  0  0  0  0  0  0  0  0  0  0
   19.5598   10.8106   -0.9860 H   0  0  0  0  0  0  0  0  0  0  0  0
   11.4321    7.4413    2.0295 H   0  0  0  0  0  0  0  0  0  0  0  0
   18.7312    9.4195   -1.2451 H   0  0  0  0  0  0  0  0  0  0  0  0
  1  2  2  0  0  0  0
  2  3  1  0  0  0  0
  2  9  1  0  0  0  0
  3  4  2  0  0  0  0
  3  8  1  0  0  0  0
  4  5  1  0  0  0  0
  4 44  1  0  0  0  0
  5  6  2  0  0  0  0
  5 45  1  0  0  0  0
  6  7  1  0  0  0  0
  7  8  2  0  0  0  0
  7 46  1  0  0  0  0
  8 47  1  0  0  0  0
  9 10  1  0  0  0  0
  9 48  1  0  0  0  0
 10 11  1  0  0  0  0
 10 16  1  0  0  0  0
 10 49  1  6  0  0  0
 11 12  1  0  0  0  0
 11 50  1  0  0  0  0
 11 51  1  0  0  0  0
 12 13  1  0  0  0  0
 12 52  1  0  0  0  0
 12 82  1  0  0  0  0
 13 14  1  0  0  0  0
 13 53  1  0  0  0  0
 13 54  1  0  0  0  0
 14 15  1  0  0  0  0
 14 55  1  0  0  0  0
 14 56  1  0  0  0  0
 15 16  1  0  0  0  0
 15 57  1  0  0  0  0
 15 58  1  0  0  0  0
 16 17  1  0  0  0  0
 16 59  1  1  0  0  0
 17 18  1  0  0  0  0
 17 60  1  0  0  0  0
 18 19  2  0  0  0  0
 18 20  1  0  0  0  0
 20 21  2  0  0  0  0
 20 23  1  0  0  0  0
 21 22  1  0  0  0  0
 21 61  1  0  0  0  0
 22 25  2  0  0  0  0
 22 62  1  0  0  0  0
 23 24  2  0  0  0  0
 23 63  1  0  0  0  0
 24 25  1  0  0  0  0
 24 64  1  0  0  0  0
 25 26  1  0  0  0  0
 26 27  2  0  0  0  0
 26 28  1  0  0  0  0
 28 29  2  0  0  0  0
 28 34  1  0  0  0  0
 29 30  1  0  0  0  0
 29 31  1  0  0  0  0
 30 65  1  0  0  0  0
 31 32  2  0  0  0  0
 31 66  1  0  0  0  0
 32 33  1  0  0  0  0
 32 67  1  0  0  0  0
 33 34  2  0  0  0  0
 33 36  1  0  0  0  0
 34 35  1  0  0  0  0
 36 37  1  0  0  0  0
 36 43  1  0  0  0  0
 36 68  1  6  0  0  0
 37 38  1  0  0  0  0
 37 39  1  0  0  0  0
 37 40  1  0  0  0  0
 38 69  1  0  0  0  0
 38 70  1  0  0  0  0
 38 71  1  0  0  0  0
 39 72  1  0  0  0  0
 39 73  1  0  0  0  0
 39 74  1  0  0  0  0
 40 41  1  0  0  0  0
 40 75  1  0  0  0  0
 40 76  1  0  0  0  0
 41 42  1  0  0  0  0
 41 77  1  0  0  0  0
 41 78  1  0  0  0  0
 42 43  1  0  0  0  0
 42 79  1  0  0  0  0
 42 80  1  0  0  0  0
 43 81  1  0  0  0  0
 43 83  1  0  0  0  0
M  CHG  2  12   1  43   1
M  END
$$$$
