R69
 OpenBabel04041917393D

 69 72  0  0  1  0  0  0  0  0999 V2000
   10.0264   39.6132    9.3855 O   0  0  0  0  0  0  0  0  0  0  0  0
   10.0978   40.8231    9.2816 C   0  0  0  0  0  0  0  0  0  0  0  0
   10.2680   41.4887    7.9540 C   0  0  0  0  0  0  0  0  0  0  0  0
   10.1016   40.7060    6.8055 C   0  0  0  0  0  0  0  0  0  0  0  0
   10.2093   41.3107    5.5637 C   0  0  0  0  0  0  0  0  0  0  0  0
   10.4743   42.6200    5.4033 N   0  0  0  0  0  0  0  0  0  0  0  0
   10.6365   43.3574    6.5214 C   0  0  0  0  0  0  0  0  0  0  0  0
   10.5316   42.8485    7.8065 C   0  0  0  0  0  0  0  0  0  0  0  0
    9.9275   41.6518   10.3812 N   0  0  0  0  0  0  0  0  0  0  0  0
    9.4202   41.1372   11.6535 C   0  0  2  0  0  0  0  0  0  0  0  0
    7.9832   41.6509   11.8354 C   0  0  0  0  0  0  0  0  0  0  0  0
    7.3392   41.0893   13.0668 N   0  3  0  0  0  0  0  0  0  0  0  0
    7.5195   41.9199   14.3009 C   0  0  0  0  0  0  0  0  0  0  0  0
    8.9323   41.8065   14.8431 C   0  0  0  0  0  0  0  0  0  0  0  0
    9.9710   42.3998   13.8931 C   0  0  0  0  0  0  0  0  0  0  0  0
   10.4428   41.4431   12.7791 C   0  0  1  0  0  0  0  0  0  0  0  0
   10.9455   40.1855   13.3493 N   0  0  0  0  0  0  0  0  0  0  0  0
   12.1380   40.1438   14.0702 C   0  0  0  0  0  0  0  0  0  0  0  0
   12.8889   41.1077   14.1222 O   0  0  0  0  0  0  0  0  0  0  0  0
   12.4377   38.8986   14.8315 C   0  0  0  0  0  0  0  0  0  0  0  0
   13.7385   38.6761   15.2996 C   0  0  0  0  0  0  0  0  0  0  0  0
   14.0286   37.5528   16.0870 C   0  0  0  0  0  0  0  0  0  0  0  0
   11.4273   37.9897   15.1760 C   0  0  0  0  0  0  0  0  0  0  0  0
   11.7147   36.8653   15.9572 C   0  0  0  0  0  0  0  0  0  0  0  0
   13.0163   36.6395   16.4010 C   0  0  0  0  0  0  0  0  0  0  0  0
   13.3417   35.5035   17.2862 C   0  0  0  0  0  0  0  0  0  0  0  0
   14.2513   35.6266   18.0807 O   0  0  0  0  0  0  0  0  0  0  0  0
   12.5355   34.2830   17.3569 C   0  0  0  0  0  0  0  0  0  0  0  0
   12.3893   33.4434   16.2559 C   0  0  0  0  0  0  0  0  0  0  0  0
   12.9081   33.7927   15.0423 O   0  0  0  0  0  0  0  0  0  0  0  0
   11.6938   32.2474   16.3769 C   0  0  0  0  0  0  0  0  0  0  0  0
   11.1561   31.8955   17.6153 C   0  0  0  0  0  0  0  0  0  0  0  0
   12.0068   33.9110   18.6058 C   0  0  0  0  0  0  0  0  0  0  0  0
   11.2887   32.7090   18.7511 C   0  0  0  0  0  0  0  0  0  0  0  0
   10.7461   32.3679   19.9941 N   0  0  0  0  0  0  0  0  0  0  0  0
   10.6036   30.9399   20.2779 C   0  0  0  0  0  0  0  0  0  0  0  0
    9.5805   33.1715   20.3579 C   0  0  0  0  0  0  0  0  0  0  0  0
    9.8800   39.6524    6.8760 H   0  0  0  0  0  0  0  0  0  0  0  0
   10.0854   40.7284    4.6546 H   0  0  0  0  0  0  0  0  0  0  0  0
   10.8657   44.4074    6.3612 H   0  0  0  0  0  0  0  0  0  0  0  0
   10.6756   43.5179    8.6431 H   0  0  0  0  0  0  0  0  0  0  0  0
   10.1850   42.6279   10.3374 H   0  0  0  0  0  0  0  0  0  0  0  0
    9.3297   40.0470   11.5738 H   0  0  0  0  0  0  0  0  0  0  0  0
    7.3693   41.3474   10.9740 H   0  0  0  0  0  0  0  0  0  0  0  0
    7.9469   42.7435   11.8862 H   0  0  0  0  0  0  0  0  0  0  0  0
    6.3274   40.9788   12.8865 H   0  0  0  0  0  0  0  0  0  0  0  0
    6.7995   41.5609   15.0429 H   0  0  0  0  0  0  0  0  0  0  0  0
    7.2778   42.9573   14.0466 H   0  0  0  0  0  0  0  0  0  0  0  0
    9.1685   40.7639   15.0759 H   0  0  0  0  0  0  0  0  0  0  0  0
    8.9728   42.3557   15.7958 H   0  0  0  0  0  0  0  0  0  0  0  0
   10.8433   42.6988   14.4917 H   0  0  0  0  0  0  0  0  0  0  0  0
    9.5801   43.3237   13.4523 H   0  0  0  0  0  0  0  0  0  0  0  0
   11.2992   41.9464   12.3121 H   0  0  0  0  0  0  0  0  0  0  0  0
   10.4873   39.3127   13.1386 H   0  0  0  0  0  0  0  0  0  0  0  0
   14.5376   39.3807   15.0648 H   0  0  0  0  0  0  0  0  0  0  0  0
   15.0458   37.3952   16.4532 H   0  0  0  0  0  0  0  0  0  0  0  0
   10.4009   38.1438   14.8668 H   0  0  0  0  0  0  0  0  0  0  0  0
   10.9186   36.1793   16.2251 H   0  0  0  0  0  0  0  0  0  0  0  0
   12.7136   33.0788   14.4128 H   0  0  0  0  0  0  0  0  0  0  0  0
   11.5565   31.5758   15.5360 H   0  0  0  0  0  0  0  0  0  0  0  0
   10.5976   30.9657   17.6720 H   0  0  0  0  0  0  0  0  0  0  0  0
   12.1599   34.5566   19.4669 H   0  0  0  0  0  0  0  0  0  0  0  0
   10.1529   30.7926   21.2644 H   0  0  0  0  0  0  0  0  0  0  0  0
   11.5853   30.4543   20.2842 H   0  0  0  0  0  0  0  0  0  0  0  0
    9.9567   30.4351   19.5545 H   0  0  0  0  0  0  0  0  0  0  0  0
    9.7279   34.2315   20.1285 H   0  0  0  0  0  0  0  0  0  0  0  0
    9.3996   33.0911   21.4357 H   0  0  0  0  0  0  0  0  0  0  0  0
    8.6818   32.8221   19.8357 H   0  0  0  0  0  0  0  0  0  0  0  0
    7.6782   40.1340   13.2224 H   0  0  0  0  0  0  0  0  0  0  0  0
  1  2  2  0  0  0  0
  2  3  1  0  0  0  0
  2  9  1  0  0  0  0
  3  4  2  0  0  0  0
  3  8  1  0  0  0  0
  4  5  1  0  0  0  0
  4 38  1  0  0  0  0
  5  6  2  0  0  0  0
  5 39  1  0  0  0  0
  6  7  1  0  0  0  0
  7  8  2  0  0  0  0
  7 40  1  0  0  0  0
  8 41  1  0  0  0  0
  9 10  1  0  0  0  0
  9 42  1  0  0  0  0
 10 11  1  0  0  0  0
 10 16  1  0  0  0  0
 10 43  1  6  0  0  0
 11 12  1  0  0  0  0
 11 44  1  0  0  0  0
 11 45  1  0  0  0  0
 12 13  1  0  0  0  0
 12 46  1  0  0  0  0
 12 69  1  0  0  0  0
 13 14  1  0  0  0  0
 13 47  1  0  0  0  0
 13 48  1  0  0  0  0
 14 15  1  0  0  0  0
 14 49  1  0  0  0  0
 14 50  1  0  0  0  0
 15 16  1  0  0  0  0
 15 51  1  0  0  0  0
 15 52  1  0  0  0  0
 16 17  1  0  0  0  0
 16 53  1  6  0  0  0
 17 18  1  0  0  0  0
 17 54  1  0  0  0  0
 18 19  2  0  0  0  0
 18 20  1  0  0  0  0
 20 21  2  0  0  0  0
 20 23  1  0  0  0  0
 21 22  1  0  0  0  0
 21 55  1  0  0  0  0
 22 25  2  0  0  0  0
 22 56  1  0  0  0  0
 23 24  2  0  0  0  0
 23 57  1  0  0  0  0
 24 25  1  0  0  0  0
 24 58  1  0  0  0  0
 25 26  1  0  0  0  0
 26 27  2  0  0  0  0
 26 28  1  0  0  0  0
 28 29  2  0  0  0  0
 28 33  1  0  0  0  0
 29 30  1  0  0  0  0
 29 31  1  0  0  0  0
 30 59  1  0  0  0  0
 31 32  2  0  0  0  0
 31 60  1  0  0  0  0
 32 34  1  0  0  0  0
 32 61  1  0  0  0  0
 33 34  2  0  0  0  0
 33 62  1  0  0  0  0
 34 35  1  0  0  0  0
 35 36  1  0  0  0  0
 35 37  1  0  0  0  0
 36 63  1  0  0  0  0
 36 64  1  0  0  0  0
 36 65  1  0  0  0  0
 37 66  1  0  0  0  0
 37 67  1  0  0  0  0
 37 68  1  0  0  0  0
M  CHG  1  12   1
M  END
$$$$
