R69
 OpenBabel04041917383D

 69 72  0  0  1  0  0  0  0  0999 V2000
   10.5335   21.1191   30.1962 O   0  0  0  0  0  0  0  0  0  0  0  0
   10.6111   22.3415   30.1420 C   0  0  0  0  0  0  0  0  0  0  0  0
   11.9062   23.0483   30.3810 C   0  0  0  0  0  0  0  0  0  0  0  0
   13.0404   22.2734   30.6281 C   0  0  0  0  0  0  0  0  0  0  0  0
   14.2564   22.9191   30.7710 C   0  0  0  0  0  0  0  0  0  0  0  0
   14.4035   24.2568   30.7015 N   0  0  0  0  0  0  0  0  0  0  0  0
   13.2980   24.9891   30.4774 C   0  0  0  0  0  0  0  0  0  0  0  0
   12.0383   24.4371   30.2998 C   0  0  0  0  0  0  0  0  0  0  0  0
    9.5258   23.1184   29.7928 N   0  0  0  0  0  0  0  0  0  0  0  0
    8.2481   22.5380   29.3807 C   0  0  2  0  0  0  0  0  0  0  0  0
    7.9730   22.9859   27.9372 C   0  0  0  0  0  0  0  0  0  0  0  0
    6.6815   22.4527   27.4172 N   0  3  0  0  0  0  0  0  0  0  0  0
    5.5031   23.3491   27.5923 C   0  0  0  0  0  0  0  0  0  0  0  0
    5.0146   23.2959   29.0248 C   0  0  0  0  0  0  0  0  0  0  0  0
    6.0518   23.8453   30.0093 C   0  0  0  0  0  0  0  0  0  0  0  0
    7.1509   22.8478   30.4404 C   0  0  1  0  0  0  0  0  0  0  0  0
    6.5402   21.6268   30.9591 N   0  0  0  0  0  0  0  0  0  0  0  0
    5.8957   21.6214   32.1931 C   0  0  0  0  0  0  0  0  0  0  0  0
    5.9105   22.5771   32.9462 O   0  0  0  0  0  0  0  0  0  0  0  0
    5.1210   20.4005   32.5263 C   0  0  0  0  0  0  0  0  0  0  0  0
    4.7642   20.1535   33.8577 C   0  0  0  0  0  0  0  0  0  0  0  0
    3.9659   19.0538   34.1705 C   0  0  0  0  0  0  0  0  0  0  0  0
    4.6770   19.5353   31.5127 C   0  0  0  0  0  0  0  0  0  0  0  0
    3.9044   18.4245   31.8304 C   0  0  0  0  0  0  0  0  0  0  0  0
    3.5522   18.1773   33.1586 C   0  0  0  0  0  0  0  0  0  0  0  0
    2.6415   17.0649   33.4988 C   0  0  0  0  0  0  0  0  0  0  0  0
    1.8855   17.1801   34.4591 O   0  0  0  0  0  0  0  0  0  0  0  0
    2.4976   15.8945   32.6108 C   0  0  0  0  0  0  0  0  0  0  0  0
    3.5462   15.0370   32.2819 C   0  0  0  0  0  0  0  0  0  0  0  0
    4.8090   15.2400   32.7522 O   0  0  0  0  0  0  0  0  0  0  0  0
    3.2898   13.9588   31.4503 C   0  0  0  0  0  0  0  0  0  0  0  0
    1.9985   13.7634   30.9397 C   0  0  0  0  0  0  0  0  0  0  0  0
    1.2093   15.6811   32.0942 C   0  0  0  0  0  0  0  0  0  0  0  0
    0.9141   14.6086   31.2447 C   0  0  0  0  0  0  0  0  0  0  0  0
   -0.3536   14.4300   30.6908 N   0  0  0  0  0  0  0  0  0  0  0  0
   -1.4755   15.2618   31.1528 C   0  0  0  0  0  0  0  0  0  0  0  0
   -0.7596   13.1164   30.1989 C   0  0  0  0  0  0  0  0  0  0  0  0
   12.9906   21.1905   30.6926 H   0  0  0  0  0  0  0  0  0  0  0  0
   15.1732   22.3605   30.9409 H   0  0  0  0  0  0  0  0  0  0  0  0
   13.4488   26.0626   30.4343 H   0  0  0  0  0  0  0  0  0  0  0  0
   11.2212   25.1120   30.0986 H   0  0  0  0  0  0  0  0  0  0  0  0
    9.5710   24.1206   29.9128 H   0  0  0  0  0  0  0  0  0  0  0  0
    8.3800   21.4480   29.3341 H   0  0  0  0  0  0  0  0  0  0  0  0
    8.7553   22.5952   27.2733 H   0  0  0  0  0  0  0  0  0  0  0  0
    7.9850   24.0774   27.8257 H   0  0  0  0  0  0  0  0  0  0  0  0
    6.7926   22.2589   26.4145 H   0  0  0  0  0  0  0  0  0  0  0  0
    4.7334   22.9898   26.9033 H   0  0  0  0  0  0  0  0  0  0  0  0
    5.7942   24.3627   27.2951 H   0  0  0  0  0  0  0  0  0  0  0  0
    4.7071   22.2762   29.2859 H   0  0  0  0  0  0  0  0  0  0  0  0
    4.1062   23.9072   29.0961 H   0  0  0  0  0  0  0  0  0  0  0  0
    5.5061   24.1636   30.9061 H   0  0  0  0  0  0  0  0  0  0  0  0
    6.5077   24.7561   29.6043 H   0  0  0  0  0  0  0  0  0  0  0  0
    7.6528   23.3174   31.2974 H   0  0  0  0  0  0  0  0  0  0  0  0
    6.6967   20.7311   30.5106 H   0  0  0  0  0  0  0  0  0  0  0  0
    5.0884   20.8243   34.6545 H   0  0  0  0  0  0  0  0  0  0  0  0
    3.6469   18.8860   35.1992 H   0  0  0  0  0  0  0  0  0  0  0  0
    4.8785   19.7295   30.4693 H   0  0  0  0  0  0  0  0  0  0  0  0
    3.5474   17.7879   31.0260 H   0  0  0  0  0  0  0  0  0  0  0  0
    5.3677   14.4885   32.4830 H   0  0  0  0  0  0  0  0  0  0  0  0
    4.0658   13.2501   31.1718 H   0  0  0  0  0  0  0  0  0  0  0  0
    1.8845   12.9154   30.2747 H   0  0  0  0  0  0  0  0  0  0  0  0
    0.4390   16.3890   32.3864 H   0  0  0  0  0  0  0  0  0  0  0  0
   -2.3973   14.9947   30.6213 H   0  0  0  0  0  0  0  0  0  0  0  0
   -1.2983   16.3218   30.9439 H   0  0  0  0  0  0  0  0  0  0  0  0
   -1.6648   15.1226   32.2231 H   0  0  0  0  0  0  0  0  0  0  0  0
    0.0541   12.4983   29.8229 H   0  0  0  0  0  0  0  0  0  0  0  0
   -1.4428   13.2420   29.3519 H   0  0  0  0  0  0  0  0  0  0  0  0
   -1.2745   12.5543   30.9874 H   0  0  0  0  0  0  0  0  0  0  0  0
    6.4862   21.5339   27.8405 H   0  0  0  0  0  0  0  0  0  0  0  0
  1  2  2  0  0  0  0
  2  3  1  0  0  0  0
  2  9  1  0  0  0  0
  3  4  2  0  0  0  0
  3  8  1  0  0  0  0
  4  5  1  0  0  0  0
  4 38  1  0  0  0  0
  5  6  2  0  0  0  0
  5 39  1  0  0  0  0
  6  7  1  0  0  0  0
  7  8  2  0  0  0  0
  7 40  1  0  0  0  0
  8 41  1  0  0  0  0
  9 10  1  0  0  0  0
  9 42  1  0  0  0  0
 10 11  1  0  0  0  0
 10 16  1  0  0  0  0
 10 43  1  6  0  0  0
 11 12  1  0  0  0  0
 11 44  1  0  0  0  0
 11 45  1  0  0  0  0
 12 13  1  0  0  0  0
 12 46  1  0  0  0  0
 12 69  1  0  0  0  0
 13 14  1  0  0  0  0
 13 47  1  0  0  0  0
 13 48  1  0  0  0  0
 14 15  1  0  0  0  0
 14 49  1  0  0  0  0
 14 50  1  0  0  0  0
 15 16  1  0  0  0  0
 15 51  1  0  0  0  0
 15 52  1  0  0  0  0
 16 17  1  0  0  0  0
 16 53  1  1  0  0  0
 17 18  1  0  0  0  0
 17 54  1  0  0  0  0
 18 19  2  0  0  0  0
 18 20  1  0  0  0  0
 20 21  2  0  0  0  0
 20 23  1  0  0  0  0
 21 22  1  0  0  0  0
 21 55  1  0  0  0  0
 22 25  2  0  0  0  0
 22 56  1  0  0  0  0
 23 24  2  0  0  0  0
 23 57  1  0  0  0  0
 24 25  1  0  0  0  0
 24 58  1  0  0  0  0
 25 26  1  0  0  0  0
 26 27  2  0  0  0  0
 26 28  1  0  0  0  0
 28 29  2  0  0  0  0
 28 33  1  0  0  0  0
 29 30  1  0  0  0  0
 29 31  1  0  0  0  0
 30 59  1  0  0  0  0
 31 32  2  0  0  0  0
 31 60  1  0  0  0  0
 32 34  1  0  0  0  0
 32 61  1  0  0  0  0
 33 34  2  0  0  0  0
 33 62  1  0  0  0  0
 34 35  1  0  0  0  0
 35 36  1  0  0  0  0
 35 37  1  0  0  0  0
 36 63  1  0  0  0  0
 36 64  1  0  0  0  0
 36 65  1  0  0  0  0
 37 66  1  0  0  0  0
 37 67  1  0  0  0  0
 37 68  1  0  0  0  0
M  CHG  1  12   1
M  END
$$$$
