RDR
 OpenBabel04041915533D

 54 58  0  0  0  0  0  0  0  0999 V2000
    3.0136    1.5136   19.6066 O   0  0  0  0  0  0  0  0  0  0  0  0
    3.6898    1.3225   18.3683 C   0  0  0  0  0  0  0  0  0  0  0  0
    4.6783    2.4548   18.1031 C   0  0  0  0  0  0  0  0  0  0  0  0
    5.8704    2.3818   18.9445 N   0  3  0  0  0  0  0  0  0  0  0  0
    6.9950    1.6434   18.6000 C   0  0  0  0  0  0  0  0  0  0  0  0
    7.9207    1.7929   19.6296 C   0  0  0  0  0  0  0  0  0  0  0  0
    9.1579    1.1389   19.5284 C   0  0  0  0  0  0  0  0  0  0  0  0
    9.4558    0.3800   18.4457 N   0  0  0  0  0  0  0  0  0  0  0  0
    8.5319    0.2552   17.4688 C   0  0  0  0  0  0  0  0  0  0  0  0
    7.2821    0.8519   17.4804 C   0  0  0  0  0  0  0  0  0  0  0  0
    7.3253    2.6323   20.6063 C   0  0  0  0  0  0  0  0  0  0  0  0
    6.0699    3.0175   20.1628 C   0  0  0  0  0  0  0  0  0  0  0  0
    5.0402    3.8665   20.8597 C   0  0  0  0  0  0  0  0  0  0  0  0
    5.6455    4.9623   21.6253 N   0  0  0  0  0  0  0  0  0  0  0  0
    5.0902    5.2484   22.8770 C   0  0  0  0  0  0  0  0  0  0  0  0
    4.2993    4.4845   23.4360 O   0  0  0  0  0  0  0  0  0  0  0  0
    5.5781    6.4935   23.6138 C   0  0  0  0  0  0  0  0  0  0  0  0
    6.1076    7.5736   22.7490 N   0  0  0  0  0  0  0  0  0  0  0  0
    7.0647    7.0438   21.7598 C   0  0  0  0  0  0  0  0  0  0  0  0
    6.3724    5.9997   20.8809 C   0  0  0  0  0  0  0  0  0  0  0  0
    6.5772    8.9927   23.5580 S   0  0  0  0  0  0  0  0  0  0  0  0
    5.5676    9.2926   24.5561 O   0  0  0  0  0  0  0  0  0  0  0  0
    6.9728    9.9713   22.5670 O   0  0  0  0  0  0  0  0  0  0  0  0
    8.0403    8.6096   24.5082 C   0  0  0  0  0  0  0  0  0  0  0  0
    8.1593    8.0533   25.7631 C   0  0  0  0  0  0  0  0  0  0  0  0
    9.5050    7.8274   26.1628 C   0  0  0  0  0  0  0  0  0  0  0  0
   10.4085    8.2592   25.1862 C   0  0  0  0  0  0  0  0  0  0  0  0
    9.5704    8.9073   23.8219 S   0  0  0  0  0  0  0  0  0  0  0  0
   11.7987    8.1408   25.3713 C   0  0  0  0  0  0  0  0  0  0  0  0
   12.2690    7.5580   26.5534 C   0  0  0  0  0  0  0  0  0  0  0  0
   13.9646    7.3799   26.7992 Cl  0  0  0  0  0  0  0  0  0  0  0  0
   11.3919    7.1167   27.5350 C   0  0  0  0  0  0  0  0  0  0  0  0
   10.0154    7.2504   27.3497 C   0  0  0  0  0  0  0  0  0  0  0  0
    3.6554    1.3444   20.3202 H   0  0  0  0  0  0  0  0  0  0  0  0
    2.9251    1.3199   17.5857 H   0  0  0  0  0  0  0  0  0  0  0  0
    4.1671    0.3370   18.3714 H   0  0  0  0  0  0  0  0  0  0  0  0
    4.2103    3.4301   18.2568 H   0  0  0  0  0  0  0  0  0  0  0  0
    5.0125    2.4228   17.0608 H   0  0  0  0  0  0  0  0  0  0  0  0
    9.9257    1.2094   20.2904 H   0  0  0  0  0  0  0  0  0  0  0  0
    8.8376   -0.3707   16.6336 H   0  0  0  0  0  0  0  0  0  0  0  0
    6.5866    0.7060   16.6633 H   0  0  0  0  0  0  0  0  0  0  0  0
    7.7710    2.9323   21.5456 H   0  0  0  0  0  0  0  0  0  0  0  0
    4.4655    3.2099   21.5207 H   0  0  0  0  0  0  0  0  0  0  0  0
    4.3309    4.3227   20.1645 H   0  0  0  0  0  0  0  0  0  0  0  0
    6.3530    6.1596   24.3128 H   0  0  0  0  0  0  0  0  0  0  0  0
    4.7235    6.8760   24.1831 H   0  0  0  0  0  0  0  0  0  0  0  0
    7.9118    6.5844   22.2838 H   0  0  0  0  0  0  0  0  0  0  0  0
    7.4442    7.8489   21.1199 H   0  0  0  0  0  0  0  0  0  0  0  0
    5.6553    6.4885   20.2117 H   0  0  0  0  0  0  0  0  0  0  0  0
    7.1369    5.5149   20.2659 H   0  0  0  0  0  0  0  0  0  0  0  0
    7.2898    7.8025   26.3647 H   0  0  0  0  0  0  0  0  0  0  0  0
   12.4948    8.4837   24.6095 H   0  0  0  0  0  0  0  0  0  0  0  0
   11.7669    6.6655   28.4504 H   0  0  0  0  0  0  0  0  0  0  0  0
    9.3321    6.9042   28.1224 H   0  0  0  0  0  0  0  0  0  0  0  0
  1  2  1  0  0  0  0
  1 34  1  0  0  0  0
  2  3  1  0  0  0  0
  2 35  1  0  0  0  0
  2 36  1  0  0  0  0
  3  4  1  0  0  0  0
  3 37  1  0  0  0  0
  3 38  1  0  0  0  0
  4  5  2  0  0  0  0
  4 12  1  0  0  0  0
  5  6  1  0  0  0  0
  5 10  1  0  0  0  0
  6  7  2  0  0  0  0
  6 11  1  0  0  0  0
  7  8  1  0  0  0  0
  7 39  1  0  0  0  0
  8  9  1  0  0  0  0
  9 10  2  0  0  0  0
  9 40  1  0  0  0  0
 10 41  1  0  0  0  0
 11 12  2  0  0  0  0
 11 42  1  0  0  0  0
 12 13  1  0  0  0  0
 13 14  1  0  0  0  0
 13 43  1  0  0  0  0
 13 44  1  0  0  0  0
 14 15  1  0  0  0  0
 14 20  1  0  0  0  0
 15 16  2  0  0  0  0
 15 17  1  0  0  0  0
 17 18  1  0  0  0  0
 17 45  1  0  0  0  0
 17 46  1  0  0  0  0
 18 19  1  0  0  0  0
 18 21  1  0  0  0  0
 19 20  1  0  0  0  0
 19 47  1  0  0  0  0
 19 48  1  0  0  0  0
 20 49  1  0  0  0  0
 20 50  1  0  0  0  0
 21 22  2  0  0  0  0
 21 23  2  0  0  0  0
 21 24  1  0  0  0  0
 24 25  2  0  0  0  0
 24 28  1  0  0  0  0
 25 26  1  0  0  0  0
 25 51  1  0  0  0  0
 26 27  2  0  0  0  0
 26 33  1  0  0  0  0
 27 28  1  0  0  0  0
 27 29  1  0  0  0  0
 29 30  2  0  0  0  0
 29 52  1  0  0  0  0
 30 31  1  0  0  0  0
 30 32  1  0  0  0  0
 32 33  2  0  0  0  0
 32 53  1  0  0  0  0
 33 54  1  0  0  0  0
M  CHG  1   4   1
M  END
$$$$
