REA
 OpenBabel04041915503D

 49 49  0  0  0  0  0  0  0  0999 V2000
   22.7000   32.3970    7.5289 C   0  0  0  0  0  0  0  0  0  0  0  0
   21.9679   33.5892    6.8591 C   0  0  0  0  0  0  0  0  0  0  0  0
   21.6030   33.3418    5.4044 C   0  0  0  0  0  0  0  0  0  0  0  0
   22.7917   32.8826    4.5682 C   0  0  0  0  0  0  0  0  0  0  0  0
   23.8424   32.0614    5.2852 C   0  0  0  0  0  0  0  0  0  0  0  0
   23.8128   31.8370    6.6189 C   0  0  0  0  0  0  0  0  0  0  0  0
   24.9057   31.1506    7.3071 C   0  0  0  0  0  0  0  0  0  0  0  0
   25.0193   29.8288    7.5274 C   0  0  0  0  0  0  0  0  0  0  0  0
   26.0648   29.1749    8.3289 C   0  0  0  0  0  0  0  0  0  0  0  0
   26.0703   27.8289    8.4753 C   0  0  0  0  0  0  0  0  0  0  0  0
   27.0420   27.0911    9.2741 C   0  0  0  0  0  0  0  0  0  0  0  0
   27.0684   25.7575    9.4193 C   0  0  0  0  0  0  0  0  0  0  0  0
   28.0284   24.9770   10.2115 C   0  0  0  0  0  0  0  0  0  0  0  0
   27.9179   23.6315   10.1989 C   0  0  0  0  0  0  0  0  0  0  0  0
   28.7687   22.5675   10.9103 C   0  0  0  0  0  0  0  0  0  0  0  0
   21.6893   31.2706    7.8365 C   0  0  0  0  0  0  0  0  0  0  0  0
   23.2452   32.9349    8.8753 C   0  0  0  0  0  0  0  0  0  0  0  0
   24.9399   31.5977    4.3544 C   0  0  0  0  0  0  0  0  0  0  0  0
   27.1155   30.0156    9.0238 C   0  0  0  0  0  0  0  0  0  0  0  0
   29.1101   25.6553   11.0164 C   0  0  0  0  0  0  0  0  0  0  0  0
   28.4107   21.3823   10.6506 O   0  0  0  0  0  0  0  0  0  0  0  0
   29.7058   22.9708   11.6542 O   0  0  0  0  0  0  0  0  0  0  0  0
   22.5992   34.4886    6.9094 H   0  0  0  0  0  0  0  0  0  0  0  0
   21.0525   33.8319    7.4167 H   0  0  0  0  0  0  0  0  0  0  0  0
   21.2014   34.2688    4.9730 H   0  0  0  0  0  0  0  0  0  0  0  0
   20.7962   32.6042    5.3392 H   0  0  0  0  0  0  0  0  0  0  0  0
   23.2878   33.7729    4.1582 H   0  0  0  0  0  0  0  0  0  0  0  0
   22.4084   32.3195    3.7074 H   0  0  0  0  0  0  0  0  0  0  0  0
   25.6277   31.8542    7.7058 H   0  0  0  0  0  0  0  0  0  0  0  0
   24.2554   29.1714    7.1132 H   0  0  0  0  0  0  0  0  0  0  0  0
   25.3105   27.2209    7.9846 H   0  0  0  0  0  0  0  0  0  0  0  0
   27.7911   27.6852    9.7803 H   0  0  0  0  0  0  0  0  0  0  0  0
   26.3118   25.1708    8.8996 H   0  0  0  0  0  0  0  0  0  0  0  0
   27.1312   23.1606    9.6097 H   0  0  0  0  0  0  0  0  0  0  0  0
   22.1646   30.4347    8.3627 H   0  0  0  0  0  0  0  0  0  0  0  0
   21.2355   30.8679    6.9245 H   0  0  0  0  0  0  0  0  0  0  0  0
   20.8785   31.6340    8.4786 H   0  0  0  0  0  0  0  0  0  0  0  0
   24.0002   33.7133    8.7125 H   0  0  0  0  0  0  0  0  0  0  0  0
   23.7009   32.1461    9.4844 H   0  0  0  0  0  0  0  0  0  0  0  0
   22.4405   33.3756    9.4758 H   0  0  0  0  0  0  0  0  0  0  0  0
   25.7266   31.0235    4.8475 H   0  0  0  0  0  0  0  0  0  0  0  0
   25.4160   32.4642    3.8809 H   0  0  0  0  0  0  0  0  0  0  0  0
   24.5181   30.9676    3.5637 H   0  0  0  0  0  0  0  0  0  0  0  0
   27.0319   31.0892    8.8620 H   0  0  0  0  0  0  0  0  0  0  0  0
   28.1168   29.7331    8.6786 H   0  0  0  0  0  0  0  0  0  0  0  0
   27.0575   29.8708   10.1092 H   0  0  0  0  0  0  0  0  0  0  0  0
   29.0921   26.7448   10.9693 H   0  0  0  0  0  0  0  0  0  0  0  0
   30.1016   25.3536   10.6599 H   0  0  0  0  0  0  0  0  0  0  0  0
   29.0157   25.4053   12.0790 H   0  0  0  0  0  0  0  0  0  0  0  0
  1  2  1  0  0  0  0
  1  6  1  0  0  0  0
  1 16  1  0  0  0  0
  1 17  1  0  0  0  0
  2  3  1  0  0  0  0
  2 23  1  0  0  0  0
  2 24  1  0  0  0  0
  3  4  1  0  0  0  0
  3 25  1  0  0  0  0
  3 26  1  0  0  0  0
  4  5  1  0  0  0  0
  4 27  1  0  0  0  0
  4 28  1  0  0  0  0
  5  6  2  0  0  0  0
  5 18  1  0  0  0  0
  6  7  1  0  0  0  0
  7  8  2  0  0  0  0
  7 29  1  0  0  0  0
  8  9  1  0  0  0  0
  8 30  1  0  0  0  0
  9 10  2  0  0  0  0
  9 19  1  0  0  0  0
 10 11  1  0  0  0  0
 10 31  1  0  0  0  0
 11 12  2  0  0  0  0
 11 32  1  0  0  0  0
 12 13  1  0  0  0  0
 12 33  1  0  0  0  0
 13 14  2  0  0  0  0
 13 20  1  0  0  0  0
 14 15  1  0  0  0  0
 14 34  1  0  0  0  0
 15 21  2  0  0  0  0
 15 22  1  0  0  0  0
 16 35  1  0  0  0  0
 16 36  1  0  0  0  0
 16 37  1  0  0  0  0
 17 38  1  0  0  0  0
 17 39  1  0  0  0  0
 17 40  1  0  0  0  0
 18 41  1  0  0  0  0
 18 42  1  0  0  0  0
 18 43  1  0  0  0  0
 19 44  1  0  0  0  0
 19 45  1  0  0  0  0
 19 46  1  0  0  0  0
 20 47  1  0  0  0  0
 20 48  1  0  0  0  0
 20 49  1  0  0  0  0
M  END
$$$$
