RNS
 OpenBabel04041917353D

 21 21  0  0  1  0  0  0  0  0999 V2000
   11.2848   32.0601   10.2977 C   0  0  0  0  0  0  0  0  0  0  0  0
   12.1384   31.8996    9.0521 C   0  0  1  0  0  0  0  0  0  0  0  0
   11.4016   31.2534    7.8932 C   0  0  1  0  0  0  0  0  0  0  0  0
   10.0738   31.9779    7.6552 C   0  0  2  0  0  0  0  0  0  0  0  0
    9.2684   31.9062    8.9601 C   0  0  2  0  0  0  0  0  0  0  0  0
    7.9592   32.6835    8.8739 C   0  0  0  0  0  0  0  0  0  0  0  0
   11.8009   32.1309   11.4189 O   0  0  0  0  0  0  0  0  0  0  0  0
   12.5720   33.2253    8.7334 O   0  0  0  0  0  0  0  0  0  0  0  0
   12.2152   31.2582    6.7140 O   0  0  0  0  0  0  0  0  0  0  0  0
    9.3713   31.3521    6.5763 O   0  0  0  0  0  0  0  0  0  0  0  0
    9.9918   32.3883   10.1120 O   0  0  0  0  0  0  0  0  0  0  0  0
   13.0313   31.2982    9.2922 H   0  0  0  0  0  0  0  0  0  0  0  0
   11.2005   30.1927    8.1036 H   0  0  0  0  0  0  0  0  0  0  0  0
   10.2627   33.0139    7.3601 H   0  0  0  0  0  0  0  0  0  0  0  0
    9.0071   30.8633    9.1778 H   0  0  0  0  0  0  0  0  0  0  0  0
    7.4281   32.6389    9.8313 H   0  0  0  0  0  0  0  0  0  0  0  0
    7.3089   32.2810    8.0965 H   0  0  0  0  0  0  0  0  0  0  0  0
    8.1440   33.7436    8.6684 H   0  0  0  0  0  0  0  0  0  0  0  0
   12.9943   33.5761    9.5437 H   0  0  0  0  0  0  0  0  0  0  0  0
   11.6482   31.0004    5.9631 H   0  0  0  0  0  0  0  0  0  0  0  0
    9.1625   30.4344    6.8279 H   0  0  0  0  0  0  0  0  0  0  0  0
  1  2  1  0  0  0  0
  1  7  2  0  0  0  0
  1 11  1  0  0  0  0
  2  3  1  0  0  0  0
  2  8  1  0  0  0  0
  2 12  1  1  0  0  0
  3  4  1  0  0  0  0
  3  9  1  0  0  0  0
  3 13  1  1  0  0  0
  4  5  1  0  0  0  0
  4 10  1  0  0  0  0
  4 14  1  6  0  0  0
  5  6  1  0  0  0  0
  5 11  1  0  0  0  0
  5 15  1  1  0  0  0
  6 16  1  0  0  0  0
  6 17  1  0  0  0  0
  6 18  1  0  0  0  0
  8 19  1  0  0  0  0
  9 20  1  0  0  0  0
 10 21  1  0  0  0  0
M  END
$$$$
