ROC
 OpenBabel04041915013D

100104  0  0  1  0  0  0  0  0999 V2000
   20.1875   -3.4702    6.1124 O   0  0  0  0  0  0  0  0  0  0  0  0
   19.0672   -3.5863    6.4891 C   0  0  0  0  0  0  0  0  0  0  0  0
   17.0031   -4.7848    6.8889 N   0  0  0  0  0  0  0  0  0  0  0  0
   18.3156   -4.8826    6.5048 C   0  0  0  0  0  0  0  0  0  0  0  0
   18.9719   -6.0490    6.2173 C   0  0  0  0  0  0  0  0  0  0  0  0
   18.2417   -7.2171    6.3300 C   0  0  0  0  0  0  0  0  0  0  0  0
   16.8876   -7.1632    6.7145 C   0  0  0  0  0  0  0  0  0  0  0  0
   16.1351   -8.3317    6.8485 C   0  0  0  0  0  0  0  0  0  0  0  0
   14.8014   -8.2460    7.2444 C   0  0  0  0  0  0  0  0  0  0  0  0
   14.2194   -7.0075    7.5153 C   0  0  0  0  0  0  0  0  0  0  0  0
   14.9793   -5.8475    7.3870 C   0  0  0  0  0  0  0  0  0  0  0  0
   16.3083   -5.9140    6.9911 C   0  0  0  0  0  0  0  0  0  0  0  0
   18.2911   -2.6036    7.0836 N   0  0  0  0  0  0  0  0  0  0  0  0
   18.7798   -1.2697    7.2896 C   0  0  2  0  0  0  0  0  0  0  0  0
   18.6076   -0.8877    8.7485 C   0  0  0  0  0  0  0  0  0  0  0  0
   17.7032   -0.1806    9.1880 O   0  0  0  0  0  0  0  0  0  0  0  0
   18.0331   -0.2994    6.4153 C   0  0  0  0  0  0  0  0  0  0  0  0
   18.4936   -0.5689    5.0160 C   0  0  0  0  0  0  0  0  0  0  0  0
   19.6604   -0.6621    4.6737 O   0  0  0  0  0  0  0  0  0  0  0  0
   17.5220   -0.7387    4.0693 N   0  0  0  0  0  0  0  0  0  0  0  0
   20.5882    0.0716   11.1827 C   0  0  1  0  0  0  0  0  0  0  0  0
   21.8890   -0.5048   11.1023 O   0  0  0  0  0  0  0  0  0  0  0  0
   19.5649   -1.0550   10.9936 C   0  0  1  0  0  0  0  0  0  0  0  0
   19.5694   -1.3825    9.5763 N   0  0  0  0  0  0  0  0  0  0  0  0
   19.8894   -2.3097   11.8007 C   0  0  0  0  0  0  0  0  0  0  0  0
   19.0966   -3.4993   11.3359 C   0  0  0  0  0  0  0  0  0  0  0  0
   17.7273   -3.5796   11.6013 C   0  0  0  0  0  0  0  0  0  0  0  0
   19.7232   -4.4959   10.5781 C   0  0  0  0  0  0  0  0  0  0  0  0
   16.9904   -4.6549   11.1195 C   0  0  0  0  0  0  0  0  0  0  0  0
   18.9827   -5.5681   10.0987 C   0  0  0  0  0  0  0  0  0  0  0  0
   17.6192   -5.6467   10.3704 C   0  0  0  0  0  0  0  0  0  0  0  0
   19.4289    1.9134   12.4089 N   0  3  1  0  0  0  0  0  0  0  0  0
   20.4722    0.8395   12.4960 C   0  0  0  0  0  0  0  0  0  0  0  0
   18.8865    2.3103   13.7613 C   0  0  2  0  0  0  0  0  0  0  0  0
   18.2339    1.1988   14.5442 C   0  0  0  0  0  0  0  0  0  0  0  0
   17.3780    0.4656   14.0547 O   0  0  0  0  0  0  0  0  0  0  0  0
   17.8492    3.3910   13.5969 C   0  0  0  0  0  0  0  0  0  0  0  0
   18.4447    4.6136   12.9119 C   0  0  2  0  0  0  0  0  0  0  0  0
   17.3511    5.6638   12.7544 C   0  0  0  0  0  0  0  0  0  0  0  0
   16.3546    5.3111   11.6555 C   0  0  0  0  0  0  0  0  0  0  0  0
   17.0678    5.0778   10.3357 C   0  0  0  0  0  0  0  0  0  0  0  0
   17.9972    3.8918   10.5113 C   0  0  0  0  0  0  0  0  0  0  0  0
   19.0619    4.2286   11.5580 C   0  0  2  0  0  0  0  0  0  0  0  0
   20.0361    3.0906   11.7182 C   0  0  0  0  0  0  0  0  0  0  0  0
   18.7356    1.1127   15.8108 N   0  0  0  0  0  0  0  0  0  0  0  0
   18.3382    0.1419   16.8157 C   0  0  0  0  0  0  0  0  0  0  0  0
   19.1627    0.4498   18.0529 C   0  0  0  0  0  0  0  0  0  0  0  0
   16.8770    0.3000   17.1941 C   0  0  0  0  0  0  0  0  0  0  0  0
   18.6309   -1.2842   16.3642 C   0  0  0  0  0  0  0  0  0  0  0  0
   20.0163   -6.0512    5.9230 H   0  0  0  0  0  0  0  0  0  0  0  0
   18.7160   -8.1696    6.1156 H   0  0  0  0  0  0  0  0  0  0  0  0
   16.5829   -9.3025    6.6384 H   0  0  0  0  0  0  0  0  0  0  0  0
   14.2115   -9.1511    7.3415 H   0  0  0  0  0  0  0  0  0  0  0  0
   13.1767   -6.9498    7.8230 H   0  0  0  0  0  0  0  0  0  0  0  0
   14.5269   -4.8787    7.6007 H   0  0  0  0  0  0  0  0  0  0  0  0
   17.3140   -2.8466    7.2944 H   0  0  0  0  0  0  0  0  0  0  0  0
   19.8492   -1.2552    7.0546 H   0  0  0  0  0  0  0  0  0  0  0  0
   18.3057    0.7230    6.7063 H   0  0  0  0  0  0  0  0  0  0  0  0
   16.9507   -0.4257    6.5458 H   0  0  0  0  0  0  0  0  0  0  0  0
   17.8436   -0.9446    3.1339 H   0  0  0  0  0  0  0  0  0  0  0  0
   16.5424   -0.7376    4.2928 H   0  0  0  0  0  0  0  0  0  0  0  0
   20.4878    0.7757   10.3476 H   0  0  0  0  0  0  0  0  0  0  0  0
   22.5702    0.1745   11.2172 H   0  0  0  0  0  0  0  0  0  0  0  0
   18.5670   -0.6914   11.2757 H   0  0  0  0  0  0  0  0  0  0  0  0
   20.2886   -1.9953    9.1985 H   0  0  0  0  0  0  0  0  0  0  0  0
   19.6749   -2.1329   12.8570 H   0  0  0  0  0  0  0  0  0  0  0  0
   20.9531   -2.5496   11.7024 H   0  0  0  0  0  0  0  0  0  0  0  0
   17.2360   -2.8026   12.1806 H   0  0  0  0  0  0  0  0  0  0  0  0
   20.7870   -4.4344   10.3577 H   0  0  0  0  0  0  0  0  0  0  0  0
   15.9274   -4.7268   11.3274 H   0  0  0  0  0  0  0  0  0  0  0  0
   19.4666   -6.3443    9.5148 H   0  0  0  0  0  0  0  0  0  0  0  0
   17.0414   -6.4836    9.9918 H   0  0  0  0  0  0  0  0  0  0  0  0
   20.2340    0.1806   13.3237 H   0  0  0  0  0  0  0  0  0  0  0  0
   21.4211    1.3546   12.7135 H   0  0  0  0  0  0  0  0  0  0  0  0
   19.7468    2.6892   14.3184 H   0  0  0  0  0  0  0  0  0  0  0  0
   17.4630    3.6671   14.5856 H   0  0  0  0  0  0  0  0  0  0  0  0
   17.0055    3.0074   13.0110 H   0  0  0  0  0  0  0  0  0  0  0  0
   19.2297    5.0179   13.5687 H   0  0  0  0  0  0  0  0  0  0  0  0
   17.8242    6.6197   12.5114 H   0  0  0  0  0  0  0  0  0  0  0  0
   16.8101    5.7729   13.7013 H   0  0  0  0  0  0  0  0  0  0  0  0
   15.6298    6.1180   11.5478 H   0  0  0  0  0  0  0  0  0  0  0  0
   15.8117    4.3976   11.9301 H   0  0  0  0  0  0  0  0  0  0  0  0
   17.6450    5.9696   10.0565 H   0  0  0  0  0  0  0  0  0  0  0  0
   16.3416    4.8748    9.5422 H   0  0  0  0  0  0  0  0  0  0  0  0
   18.4650    3.6441    9.5542 H   0  0  0  0  0  0  0  0  0  0  0  0
   17.4084    3.0254   10.8368 H   0  0  0  0  0  0  0  0  0  0  0  0
   19.6387    5.0775   11.1747 H   0  0  0  0  0  0  0  0  0  0  0  0
   20.3913    2.7429   10.7507 H   0  0  0  0  0  0  0  0  0  0  0  0
   20.8834    3.4076   12.3336 H   0  0  0  0  0  0  0  0  0  0  0  0
   19.4128    1.8050   16.1062 H   0  0  0  0  0  0  0  0  0  0  0  0
   18.9181   -0.2506   18.8522 H   0  0  0  0  0  0  0  0  0  0  0  0
   18.9494    1.4721   18.3894 H   0  0  0  0  0  0  0  0  0  0  0  0
   20.2278    0.3785   17.8129 H   0  0  0  0  0  0  0  0  0  0  0  0
   16.6067   -0.4424   17.9526 H   0  0  0  0  0  0  0  0  0  0  0  0
   16.2362    0.1662   16.3214 H   0  0  0  0  0  0  0  0  0  0  0  0
   16.7068    1.3012   17.6066 H   0  0  0  0  0  0  0  0  0  0  0  0
   18.3303   -1.9984   17.1396 H   0  0  0  0  0  0  0  0  0  0  0  0
   19.7031   -1.4097   16.1738 H   0  0  0  0  0  0  0  0  0  0  0  0
   18.0870   -1.5235   15.4459 H   0  0  0  0  0  0  0  0  0  0  0  0
   18.6350    1.5483   11.8556 H   0  0  0  0  0  0  0  0  0  0  0  0
  1  2  2  0  0  0  0
  2  4  1  0  0  0  0
  2 13  1  0  0  0  0
  3 12  2  0  0  0  0
  3  4  1  0  0  0  0
  4  5  2  0  0  0  0
  5  6  1  0  0  0  0
  5 50  1  0  0  0  0
  6  7  2  0  0  0  0
  6 51  1  0  0  0  0
  7  8  1  0  0  0  0
  7 12  1  0  0  0  0
  8  9  2  0  0  0  0
  8 52  1  0  0  0  0
  9 10  1  0  0  0  0
  9 53  1  0  0  0  0
 10 11  2  0  0  0  0
 10 54  1  0  0  0  0
 11 12  1  0  0  0  0
 11 55  1  0  0  0  0
 13 14  1  0  0  0  0
 13 56  1  0  0  0  0
 14 17  1  0  0  0  0
 14 15  1  0  0  0  0
 14 57  1  6  0  0  0
 15 16  2  0  0  0  0
 15 24  1  0  0  0  0
 17 18  1  0  0  0  0
 17 58  1  0  0  0  0
 17 59  1  0  0  0  0
 18 20  1  0  0  0  0
 18 19  2  0  0  0  0
 20 60  1  0  0  0  0
 20 61  1  0  0  0  0
 21 22  1  0  0  0  0
 21 23  1  0  0  0  0
 21 33  1  0  0  0  0
 21 62  1  6  0  0  0
 22 63  1  0  0  0  0
 23 24  1  0  0  0  0
 23 25  1  0  0  0  0
 23 64  1  1  0  0  0
 24 65  1  0  0  0  0
 25 26  1  0  0  0  0
 25 66  1  0  0  0  0
 25 67  1  0  0  0  0
 26 27  2  0  0  0  0
 26 28  1  0  0  0  0
 27 29  1  0  0  0  0
 27 68  1  0  0  0  0
 28 30  2  0  0  0  0
 28 69  1  0  0  0  0
 29 31  2  0  0  0  0
 29 70  1  0  0  0  0
 30 31  1  0  0  0  0
 30 71  1  0  0  0  0
 31 72  1  0  0  0  0
 32 33  1  0  0  0  0
 32 34  1  0  0  0  0
 32 44  1  0  0  0  0
 32100  1  6  0  0  0
 33 73  1  0  0  0  0
 33 74  1  0  0  0  0
 34 35  1  0  0  0  0
 34 37  1  0  0  0  0
 34 75  1  1  0  0  0
 35 36  2  0  0  0  0
 35 45  1  0  0  0  0
 37 38  1  0  0  0  0
 37 76  1  0  0  0  0
 37 77  1  0  0  0  0
 38 39  1  0  0  0  0
 38 43  1  0  0  0  0
 38 78  1  1  0  0  0
 39 40  1  0  0  0  0
 39 79  1  0  0  0  0
 39 80  1  0  0  0  0
 40 41  1  0  0  0  0
 40 81  1  0  0  0  0
 40 82  1  0  0  0  0
 41 42  1  0  0  0  0
 41 83  1  0  0  0  0
 41 84  1  0  0  0  0
 42 43  1  0  0  0  0
 42 85  1  0  0  0  0
 42 86  1  0  0  0  0
 43 44  1  0  0  0  0
 43 87  1  6  0  0  0
 44 88  1  0  0  0  0
 44 89  1  0  0  0  0
 45 46  1  0  0  0  0
 45 90  1  0  0  0  0
 46 47  1  0  0  0  0
 46 48  1  0  0  0  0
 46 49  1  0  0  0  0
 47 91  1  0  0  0  0
 47 92  1  0  0  0  0
 47 93  1  0  0  0  0
 48 94  1  0  0  0  0
 48 95  1  0  0  0  0
 48 96  1  0  0  0  0
 49 97  1  0  0  0  0
 49 98  1  0  0  0  0
 49 99  1  0  0  0  0
M  CHG  1  32   1
M  END
$$$$
