ROL
 OpenBabel04041916443D

 41 43  0  0  1  0  0  0  0  0999 V2000
   32.3927   75.3771   22.0584 C   0  0  0  0  0  0  0  0  0  0  0  0
   32.0598   75.9274   20.8024 C   0  0  0  0  0  0  0  0  0  0  0  0
   31.7378   77.2875   20.6365 C   0  0  0  0  0  0  0  0  0  0  0  0
   31.7814   78.1497   21.7473 C   0  0  0  0  0  0  0  0  0  0  0  0
   32.0801   77.6100   23.0076 C   0  0  0  0  0  0  0  0  0  0  0  0
   32.3691   76.2358   23.1692 C   0  0  0  0  0  0  0  0  0  0  0  0
   32.7137   73.8888   22.1460 C   0  0  1  0  0  0  0  0  0  0  0  0
   34.0134   73.5060   22.8795 C   0  0  0  0  0  0  0  0  0  0  0  0
   33.5968   72.4524   23.9015 C   0  0  0  0  0  0  0  0  0  0  0  0
   34.2749   71.9837   24.7760 O   0  0  0  0  0  0  0  0  0  0  0  0
   32.2791   72.1131   23.6331 N   0  0  0  0  0  0  0  0  0  0  0  0
   31.6088   73.0968   22.8365 C   0  0  0  0  0  0  0  0  0  0  0  0
   31.3777   77.8718   19.4441 O   0  0  0  0  0  0  0  0  0  0  0  0
   31.1757   77.0661   18.2791 C   0  0  0  0  0  0  0  0  0  0  0  0
   32.5045   76.7931   17.5931 C   0  0  0  0  0  0  0  0  0  0  0  0
   32.8316   78.1106   16.9056 C   0  0  0  0  0  0  0  0  0  0  0  0
   31.4864   78.6647   16.4511 C   0  0  0  0  0  0  0  0  0  0  0  0
   30.4158   77.8971   17.2343 C   0  0  0  0  0  0  0  0  0  0  0  0
   31.5004   79.4729   21.4895 O   0  0  0  0  0  0  0  0  0  0  0  0
   31.7016   80.4417   22.5113 C   0  0  0  0  0  0  0  0  0  0  0  0
   32.0689   75.2566   19.9470 H   0  0  0  0  0  0  0  0  0  0  0  0
   32.0913   78.2465   23.8882 H   0  0  0  0  0  0  0  0  0  0  0  0
   32.5774   75.8457   24.1691 H   0  0  0  0  0  0  0  0  0  0  0  0
   32.7973   73.5160   21.1125 H   0  0  0  0  0  0  0  0  0  0  0  0
   34.4764   74.3518   23.3763 H   0  0  0  0  0  0  0  0  0  0  0  0
   34.7365   73.0610   22.1763 H   0  0  0  0  0  0  0  0  0  0  0  0
   31.8515   71.2884   24.0474 H   0  0  0  0  0  0  0  0  0  0  0  0
   30.9633   72.5969   22.1143 H   0  0  0  0  0  0  0  0  0  0  0  0
   31.0025   73.7401   23.4818 H   0  0  0  0  0  0  0  0  0  0  0  0
   30.6214   76.1558   18.5239 H   0  0  0  0  0  0  0  0  0  0  0  0
   32.4065   75.9912   16.8516 H   0  0  0  0  0  0  0  0  0  0  0  0
   33.2809   76.5240   18.3106 H   0  0  0  0  0  0  0  0  0  0  0  0
   33.5072   77.9642   16.0581 H   0  0  0  0  0  0  0  0  0  0  0  0
   33.3054   78.8042   17.6137 H   0  0  0  0  0  0  0  0  0  0  0  0
   31.3591   78.5129   15.3714 H   0  0  0  0  0  0  0  0  0  0  0  0
   31.4201   79.7393   16.6580 H   0  0  0  0  0  0  0  0  0  0  0  0
   29.7157   78.5989   17.6994 H   0  0  0  0  0  0  0  0  0  0  0  0
   29.8578   77.2472   16.5447 H   0  0  0  0  0  0  0  0  0  0  0  0
   31.4324   81.4380   22.1227 H   0  0  0  0  0  0  0  0  0  0  0  0
   32.7523   80.4693   22.8138 H   0  0  0  0  0  0  0  0  0  0  0  0
   31.0608   80.2317   23.3709 H   0  0  0  0  0  0  0  0  0  0  0  0
  1  2  2  0  0  0  0
  1  6  1  0  0  0  0
  1  7  1  0  0  0  0
  2  3  1  0  0  0  0
  2 21  1  0  0  0  0
  3  4  2  0  0  0  0
  3 13  1  0  0  0  0
  4  5  1  0  0  0  0
  4 19  1  0  0  0  0
  5  6  2  0  0  0  0
  5 22  1  0  0  0  0
  6 23  1  0  0  0  0
  7  8  1  0  0  0  0
  7 12  1  0  0  0  0
  7 24  1  6  0  0  0
  8  9  1  0  0  0  0
  8 25  1  0  0  0  0
  8 26  1  0  0  0  0
  9 10  2  0  0  0  0
  9 11  1  0  0  0  0
 11 12  1  0  0  0  0
 11 27  1  0  0  0  0
 12 28  1  0  0  0  0
 12 29  1  0  0  0  0
 13 14  1  0  0  0  0
 14 15  1  0  0  0  0
 14 18  1  0  0  0  0
 14 30  1  0  0  0  0
 15 16  1  0  0  0  0
 15 31  1  0  0  0  0
 15 32  1  0  0  0  0
 16 17  1  0  0  0  0
 16 33  1  0  0  0  0
 16 34  1  0  0  0  0
 17 18  1  0  0  0  0
 17 35  1  0  0  0  0
 17 36  1  0  0  0  0
 18 37  1  0  0  0  0
 18 38  1  0  0  0  0
 19 20  1  0  0  0  0
 20 39  1  0  0  0  0
 20 40  1  0  0  0  0
 20 41  1  0  0  0  0
M  END
$$$$
