RPR
 OpenBabel04041914313D

 66 68  0  0  1  0  0  0  0  0999 V2000
    7.2062    0.1767   17.7967 C   0  0  0  0  0  0  0  0  0  0  0  0
    7.9147    0.8444   18.8137 C   0  0  0  0  0  0  0  0  0  0  0  0
    9.2964    0.6052   18.9068 C   0  0  0  0  0  0  0  0  0  0  0  0
    9.9475   -0.2544   18.0192 C   0  0  0  0  0  0  0  0  0  0  0  0
    9.2307   -0.8983   17.0139 C   0  0  0  0  0  0  0  0  0  0  0  0
    7.8500   -0.6959   16.8939 C   0  0  0  0  0  0  0  0  0  0  0  0
    7.1749    3.9457   20.8837 C   0  0  0  0  0  0  0  0  0  0  0  0
    6.0011    3.5877   21.5545 C   0  0  0  0  0  0  0  0  0  0  0  0
    5.4565    2.3189   21.3331 C   0  0  0  0  0  0  0  0  0  0  0  0
    6.0695    1.4271   20.4349 C   0  0  0  0  0  0  0  0  0  0  0  0
    7.2443    1.7770   19.7458 C   0  0  0  0  0  0  0  0  0  0  0  0
    7.7808    3.0538   19.9893 C   0  0  0  0  0  0  0  0  0  0  0  0
    5.3497    4.5167   22.5304 C   0  0  0  0  0  0  0  0  0  0  0  0
    5.4879    5.8645   22.2556 N   0  0  0  0  0  0  0  0  0  0  0  0
    4.9333    6.9343   23.0984 C   0  0  2  0  0  0  0  0  0  0  0  0
    4.4315    8.0589   22.1861 C   0  0  0  0  0  0  0  0  0  0  0  0
    5.9648    7.4177   24.1602 C   0  0  2  0  0  0  0  0  0  0  0  0
    5.3412    8.5001   25.0387 C   0  0  0  0  0  0  0  0  0  0  0  0
    4.1509    8.0831   25.5490 O   0  0  0  0  0  0  0  0  0  0  0  0
    7.2681    7.9308   23.4948 C   0  0  0  0  0  0  0  0  0  0  0  0
    7.0773   -1.3826   15.8059 C   0  0  0  0  0  0  0  0  0  0  0  0
    6.7345   -0.4497   14.7111 N   0  3  0  0  0  0  0  0  0  0  0  0
    8.8127    7.3743   25.4815 C   0  0  0  0  0  0  0  0  0  0  0  0
    9.9767    7.6099   26.2474 C   0  0  0  0  0  0  0  0  0  0  0  0
   10.8509    8.6262   25.8262 C   0  0  0  0  0  0  0  0  0  0  0  0
   10.5807    9.3713   24.6798 C   0  0  0  0  0  0  0  0  0  0  0  0
    9.4161    9.1362   23.9544 C   0  0  0  0  0  0  0  0  0  0  0  0
    8.5003    8.1527   24.3562 C   0  0  0  0  0  0  0  0  0  0  0  0
   10.2670    6.8143   27.4626 C   0  0  0  0  0  0  0  0  0  0  0  0
   11.5108    6.6205   27.8516 N   0  0  0  0  0  0  0  0  0  0  0  0
    9.2810    6.3004   28.1688 N   0  0  0  0  0  0  0  0  0  0  0  0
    5.8533    9.5861   25.2776 O   0  0  0  0  0  0  0  0  0  0  0  0
    4.7403    4.0786   23.4949 O   0  0  0  0  0  0  0  0  0  0  0  0
    3.4222    9.0797   26.2745 C   0  0  0  0  0  0  0  0  0  0  0  0
    6.1327    0.3464   17.7148 H   0  0  0  0  0  0  0  0  0  0  0  0
    9.8846    1.0799   19.6919 H   0  0  0  0  0  0  0  0  0  0  0  0
   11.0177   -0.4275   18.1238 H   0  0  0  0  0  0  0  0  0  0  0  0
    9.7680   -1.5710   16.3461 H   0  0  0  0  0  0  0  0  0  0  0  0
    7.6556    4.9028   21.0638 H   0  0  0  0  0  0  0  0  0  0  0  0
    4.5539    2.0128   21.8617 H   0  0  0  0  0  0  0  0  0  0  0  0
    5.6282    0.4401   20.3043 H   0  0  0  0  0  0  0  0  0  0  0  0
    8.6921    3.3698   19.4836 H   0  0  0  0  0  0  0  0  0  0  0  0
    5.9197    6.1400   21.3852 H   0  0  0  0  0  0  0  0  0  0  0  0
    4.0629    6.5153   23.6186 H   0  0  0  0  0  0  0  0  0  0  0  0
    3.9773    8.8748   22.7562 H   0  0  0  0  0  0  0  0  0  0  0  0
    3.6722    7.6754   21.4954 H   0  0  0  0  0  0  0  0  0  0  0  0
    5.2391    8.4740   21.5743 H   0  0  0  0  0  0  0  0  0  0  0  0
    6.1984    6.5713   24.8164 H   0  0  0  0  0  0  0  0  0  0  0  0
    7.0424    8.8773   22.9847 H   0  0  0  0  0  0  0  0  0  0  0  0
    7.5864    7.2269   22.7170 H   0  0  0  0  0  0  0  0  0  0  0  0
    6.1393   -1.7966   16.1888 H   0  0  0  0  0  0  0  0  0  0  0  0
    7.6520   -2.1972   15.3524 H   0  0  0  0  0  0  0  0  0  0  0  0
    6.2111   -0.9232   13.9640 H   0  0  0  0  0  0  0  0  0  0  0  0
    6.1643    0.3318   15.0518 H   0  0  0  0  0  0  0  0  0  0  0  0
    8.1471    6.5606   25.7548 H   0  0  0  0  0  0  0  0  0  0  0  0
   11.7498    8.8762   26.3848 H   0  0  0  0  0  0  0  0  0  0  0  0
   11.2695   10.1500   24.3553 H   0  0  0  0  0  0  0  0  0  0  0  0
    9.2234    9.7404   23.0677 H   0  0  0  0  0  0  0  0  0  0  0  0
   11.7428    6.1101   28.6928 H   0  0  0  0  0  0  0  0  0  0  0  0
   12.2876    6.9831   27.3108 H   0  0  0  0  0  0  0  0  0  0  0  0
    9.4381    5.7475   29.0003 H   0  0  0  0  0  0  0  0  0  0  0  0
    2.4853    8.6312   26.6164 H   0  0  0  0  0  0  0  0  0  0  0  0
    3.1805    9.9239   25.6205 H   0  0  0  0  0  0  0  0  0  0  0  0
    3.9876    9.4151   27.1493 H   0  0  0  0  0  0  0  0  0  0  0  0
    7.5850   -0.0481   14.2982 H   0  0  0  0  0  0  0  0  0  0  0  0
    8.3153    6.4738   27.9141 H   0  0  0  0  0  0  0  0  0  0  0  0
  1  6  2  0  0  0  0
  1  2  1  0  0  0  0
  1 35  1  0  0  0  0
  2 11  1  0  0  0  0
  2  3  2  0  0  0  0
  3  4  1  0  0  0  0
  3 36  1  0  0  0  0
  4  5  2  0  0  0  0
  4 37  1  0  0  0  0
  5  6  1  0  0  0  0
  5 38  1  0  0  0  0
  6 21  1  0  0  0  0
  7  8  2  0  0  0  0
  7 12  1  0  0  0  0
  7 39  1  0  0  0  0
  8  9  1  0  0  0  0
  8 13  1  0  0  0  0
  9 10  2  0  0  0  0
  9 40  1  0  0  0  0
 10 11  1  0  0  0  0
 10 41  1  0  0  0  0
 11 12  2  0  0  0  0
 12 42  1  0  0  0  0
 13 33  2  0  0  0  0
 13 14  1  0  0  0  0
 14 15  1  0  0  0  0
 14 43  1  0  0  0  0
 15 17  1  0  0  0  0
 15 16  1  0  0  0  0
 15 44  1  1  0  0  0
 16 45  1  0  0  0  0
 16 46  1  0  0  0  0
 16 47  1  0  0  0  0
 17 20  1  0  0  0  0
 17 18  1  0  0  0  0
 17 48  1  1  0  0  0
 18 32  2  0  0  0  0
 18 19  1  0  0  0  0
 19 34  1  0  0  0  0
 20 28  1  0  0  0  0
 20 49  1  0  0  0  0
 20 50  1  0  0  0  0
 21 22  1  0  0  0  0
 21 51  1  0  0  0  0
 21 52  1  0  0  0  0
 22 53  1  0  0  0  0
 22 54  1  0  0  0  0
 22 65  1  0  0  0  0
 23 28  1  0  0  0  0
 23 24  2  0  0  0  0
 23 55  1  0  0  0  0
 24 29  1  0  0  0  0
 24 25  1  0  0  0  0
 25 26  2  0  0  0  0
 25 56  1  0  0  0  0
 26 27  1  0  0  0  0
 26 57  1  0  0  0  0
 27 28  2  0  0  0  0
 27 58  1  0  0  0  0
 29 31  2  0  0  0  0
 29 30  1  0  0  0  0
 30 59  1  0  0  0  0
 30 60  1  0  0  0  0
 31 61  1  0  0  0  0
 31 66  1  0  0  0  0
 34 62  1  0  0  0  0
 34 63  1  0  0  0  0
 34 64  1  0  0  0  0
M  CHG  1  22   1
M  END
$$$$
