RTL
 OpenBabel04041914523D

 51 51  0  0  0  0  0  0  0  0999 V2000
   12.1916   -2.0304   56.5922 C   0  0  0  0  0  0  0  0  0  0  0  0
   13.6760   -2.1339   57.0492 C   0  0  0  0  0  0  0  0  0  0  0  0
   13.8176   -2.4436   58.5286 C   0  0  0  0  0  0  0  0  0  0  0  0
   13.1980   -1.3130   59.3288 C   0  0  0  0  0  0  0  0  0  0  0  0
   11.8320   -0.8990   58.8273 C   0  0  0  0  0  0  0  0  0  0  0  0
   11.3180   -1.2883   57.6321 C   0  0  0  0  0  0  0  0  0  0  0  0
   10.0663   -0.6801   57.1557 C   0  0  0  0  0  0  0  0  0  0  0  0
    8.8250   -1.1774   57.2085 C   0  0  0  0  0  0  0  0  0  0  0  0
    7.5764   -0.5302   56.7551 C   0  0  0  0  0  0  0  0  0  0  0  0
    6.4184   -1.2200   56.8848 C   0  0  0  0  0  0  0  0  0  0  0  0
    5.0886   -0.7997   56.5072 C   0  0  0  0  0  0  0  0  0  0  0  0
    3.9972   -1.5812   56.6459 C   0  0  0  0  0  0  0  0  0  0  0  0
    2.6592   -1.1281   56.3230 C   0  0  0  0  0  0  0  0  0  0  0  0
    2.0375   -0.2899   57.1711 C   0  0  0  0  0  0  0  0  0  0  0  0
    0.6961    0.3442   57.0025 C   0  0  0  0  0  0  0  0  0  0  0  0
   -0.2555   -0.3872   57.7518 O   0  0  0  0  0  0  0  0  0  0  0  0
   12.2153   -1.2055   55.2880 C   0  0  0  0  0  0  0  0  0  0  0  0
   11.6822   -3.4436   56.2517 C   0  0  0  0  0  0  0  0  0  0  0  0
   11.2064    0.1554   59.6969 C   0  0  0  0  0  0  0  0  0  0  0  0
    7.6033    0.8654   56.1668 C   0  0  0  0  0  0  0  0  0  0  0  0
    2.0520   -1.6541   55.0498 C   0  0  0  0  0  0  0  0  0  0  0  0
   14.1859   -1.1795   56.8559 H   0  0  0  0  0  0  0  0  0  0  0  0
   14.2119   -2.8913   56.4665 H   0  0  0  0  0  0  0  0  0  0  0  0
   14.8785   -2.5405   58.7885 H   0  0  0  0  0  0  0  0  0  0  0  0
   13.3332   -3.3942   58.7771 H   0  0  0  0  0  0  0  0  0  0  0  0
   13.8557   -0.4334   59.2699 H   0  0  0  0  0  0  0  0  0  0  0  0
   13.1523   -1.6039   60.3843 H   0  0  0  0  0  0  0  0  0  0  0  0
   10.2501    0.3197   56.7506 H   0  0  0  0  0  0  0  0  0  0  0  0
    8.6966   -2.1763   57.6329 H   0  0  0  0  0  0  0  0  0  0  0  0
    6.4618   -2.2100   57.3451 H   0  0  0  0  0  0  0  0  0  0  0  0
    4.9620    0.2027   56.0986 H   0  0  0  0  0  0  0  0  0  0  0  0
    4.0762   -2.5978   57.0290 H   0  0  0  0  0  0  0  0  0  0  0  0
    2.5527   -0.0039   58.0875 H   0  0  0  0  0  0  0  0  0  0  0  0
    0.3702    0.3845   55.9639 H   0  0  0  0  0  0  0  0  0  0  0  0
    0.7262    1.3646   57.3880 H   0  0  0  0  0  0  0  0  0  0  0  0
   -0.2767   -1.2818   57.3749 H   0  0  0  0  0  0  0  0  0  0  0  0
   11.2178   -1.1104   54.8465 H   0  0  0  0  0  0  0  0  0  0  0  0
   12.8634   -1.6696   54.5383 H   0  0  0  0  0  0  0  0  0  0  0  0
   12.5941   -0.1944   55.4835 H   0  0  0  0  0  0  0  0  0  0  0  0
   11.6553   -4.0990   57.1278 H   0  0  0  0  0  0  0  0  0  0  0  0
   12.3431   -3.9175   55.5113 H   0  0  0  0  0  0  0  0  0  0  0  0
   10.6819   -3.4185   55.8079 H   0  0  0  0  0  0  0  0  0  0  0  0
   10.2028    0.4433   59.3794 H   0  0  0  0  0  0  0  0  0  0  0  0
   11.8341    1.0532   59.6483 H   0  0  0  0  0  0  0  0  0  0  0  0
   11.1477   -0.1761   60.7369 H   0  0  0  0  0  0  0  0  0  0  0  0
    8.6024    1.3007   56.0972 H   0  0  0  0  0  0  0  0  0  0  0  0
    7.0118    1.5550   56.7743 H   0  0  0  0  0  0  0  0  0  0  0  0
    7.1998    0.8656   55.1530 H   0  0  0  0  0  0  0  0  0  0  0  0
    2.7397   -2.3209   54.5169 H   0  0  0  0  0  0  0  0  0  0  0  0
    1.8026   -0.8344   54.3679 H   0  0  0  0  0  0  0  0  0  0  0  0
    1.1405   -2.2241   55.2590 H   0  0  0  0  0  0  0  0  0  0  0  0
  1  2  1  0  0  0  0
  1  6  1  0  0  0  0
  1 17  1  0  0  0  0
  1 18  1  0  0  0  0
  2  3  1  0  0  0  0
  2 22  1  0  0  0  0
  2 23  1  0  0  0  0
  3  4  1  0  0  0  0
  3 24  1  0  0  0  0
  3 25  1  0  0  0  0
  4  5  1  0  0  0  0
  4 26  1  0  0  0  0
  4 27  1  0  0  0  0
  5  6  2  0  0  0  0
  5 19  1  0  0  0  0
  6  7  1  0  0  0  0
  7  8  2  0  0  0  0
  7 28  1  0  0  0  0
  8  9  1  0  0  0  0
  8 29  1  0  0  0  0
  9 10  2  0  0  0  0
  9 20  1  0  0  0  0
 10 11  1  0  0  0  0
 10 30  1  0  0  0  0
 11 12  2  0  0  0  0
 11 31  1  0  0  0  0
 12 13  1  0  0  0  0
 12 32  1  0  0  0  0
 13 14  2  0  0  0  0
 13 21  1  0  0  0  0
 14 15  1  0  0  0  0
 14 33  1  0  0  0  0
 15 16  1  0  0  0  0
 15 34  1  0  0  0  0
 15 35  1  0  0  0  0
 16 36  1  0  0  0  0
 17 37  1  0  0  0  0
 17 38  1  0  0  0  0
 17 39  1  0  0  0  0
 18 40  1  0  0  0  0
 18 41  1  0  0  0  0
 18 42  1  0  0  0  0
 19 43  1  0  0  0  0
 19 44  1  0  0  0  0
 19 45  1  0  0  0  0
 20 46  1  0  0  0  0
 20 47  1  0  0  0  0
 20 48  1  0  0  0  0
 21 49  1  0  0  0  0
 21 50  1  0  0  0  0
 21 51  1  0  0  0  0
M  END
$$$$
