RUN
 OpenBabel04041914583D

 94 97  0  0  1  0  0  0  0  0999 V2000
   -7.7513   17.2296   22.3757 C   0  0  0  0  0  0  0  0  0  0  0  0
   -7.7437   18.4007   22.0230 O   0  0  0  0  0  0  0  0  0  0  0  0
   -7.6913   16.1236   21.3463 C   0  0  0  0  0  0  0  0  0  0  0  0
   -6.5636   16.4664   20.3842 C   0  0  0  0  0  0  0  0  0  0  0  0
   -9.0436   16.1169   20.6487 C   0  0  0  0  0  0  0  0  0  0  0  0
   -8.0298   17.8068   24.7055 N   0  3  0  0  0  0  0  0  0  0  0  0
   -8.0686   17.2743   25.9234 C   0  0  1  0  0  0  0  0  0  0  0  0
   -8.0237   15.9511   25.7479 N   0  3  0  0  0  0  0  0  0  0  0  0
   -7.9066   15.6440   24.3994 C   0  0  0  0  0  0  0  0  0  0  0  0
   -7.8792   16.8359   23.7405 C   0  0  1  0  0  0  0  0  0  0  0  0
   -8.1211   18.0942   27.1814 C   0  0  1  0  0  0  0  0  0  0  0  0
   -8.9148   17.4072   28.2922 C   0  0  0  0  0  0  0  0  0  0  0  0
  -10.4333   17.3624   28.0790 C   0  0  2  0  0  0  0  0  0  0  0  0
  -11.0333   18.4012   28.8595 O   0  0  0  0  0  0  0  0  0  0  0  0
  -10.9837   15.9936   28.5591 C   0  0  1  0  0  0  0  0  0  0  0  0
  -11.0434   15.9820   30.0079 N   0  0  0  0  0  0  0  0  0  0  0  0
  -10.1740   15.2580   30.7740 C   0  0  0  0  0  0  0  0  0  0  0  0
   -9.3366   14.5010   30.2868 O   0  0  0  0  0  0  0  0  0  0  0  0
  -10.4013   15.4434   32.2792 C   0  0  1  0  0  0  0  0  0  0  0  0
  -11.3070   14.3936   32.7041 N   0  0  0  0  0  0  0  0  0  0  0  0
  -12.5497   14.7023   33.2127 C   0  0  0  0  0  0  0  0  0  0  0  0
  -12.9286   15.8594   33.3650 O   0  0  0  0  0  0  0  0  0  0  0  0
   -9.0602   15.4008   33.0186 C   0  0  0  0  0  0  0  0  0  0  0  0
   -9.2447   15.4306   34.5322 C   0  0  0  0  0  0  0  0  0  0  0  0
   -8.2492   16.6357   32.6241 C   0  0  0  0  0  0  0  0  0  0  0  0
   -6.7291   18.4308   27.7431 C   0  0  0  0  0  0  0  0  0  0  0  0
   -5.6591   18.6356   26.7085 C   0  0  0  0  0  0  0  0  0  0  0  0
   -4.6323   17.6878   26.5810 C   0  0  0  0  0  0  0  0  0  0  0  0
   -3.6550   17.8350   25.5996 C   0  0  0  0  0  0  0  0  0  0  0  0
   -3.6960   18.9296   24.7398 C   0  0  0  0  0  0  0  0  0  0  0  0
   -4.7039   19.8845   24.8685 C   0  0  0  0  0  0  0  0  0  0  0  0
   -5.6794   19.7448   25.8553 C   0  0  0  0  0  0  0  0  0  0  0  0
  -12.3664   15.6742   27.9854 C   0  0  0  0  0  0  0  0  0  0  0  0
  -12.8378   14.2919   28.3856 C   0  0  0  0  0  0  0  0  0  0  0  0
  -12.2579   13.1437   27.8268 C   0  0  0  0  0  0  0  0  0  0  0  0
  -12.6884   11.8738   28.2160 C   0  0  0  0  0  0  0  0  0  0  0  0
  -13.6954   11.7426   29.1690 C   0  0  0  0  0  0  0  0  0  0  0  0
  -14.2724   12.8765   29.7381 C   0  0  0  0  0  0  0  0  0  0  0  0
  -13.8447   14.1449   29.3503 C   0  0  0  0  0  0  0  0  0  0  0  0
  -13.3672   13.6467   33.4999 O   0  0  0  0  0  0  0  0  0  0  0  0
  -12.7776   12.3859   33.8022 C   0  0  0  0  0  0  0  0  0  0  0  0
  -13.7722   11.2589   33.8381 C   0  0  0  0  0  0  0  0  0  0  0  0
  -14.7700   11.1991   34.8140 C   0  0  0  0  0  0  0  0  0  0  0  0
  -15.6049   10.0827   34.8884 C   0  0  0  0  0  0  0  0  0  0  0  0
  -15.4485    9.0272   33.9884 C   0  0  0  0  0  0  0  0  0  0  0  0
  -14.4642    9.0812   33.0064 C   0  0  0  0  0  0  0  0  0  0  0  0
  -13.6278   10.1925   32.9335 C   0  0  0  0  0  0  0  0  0  0  0  0
   -7.4931   15.1451   21.7969 H   0  0  0  0  0  0  0  0  0  0  0  0
   -6.4806   15.7121   19.6020 H   0  0  0  0  0  0  0  0  0  0  0  0
   -5.6117   16.5350   20.9218 H   0  0  0  0  0  0  0  0  0  0  0  0
   -6.7422   17.4396   19.9113 H   0  0  0  0  0  0  0  0  0  0  0  0
   -9.8451   15.8718   21.3560 H   0  0  0  0  0  0  0  0  0  0  0  0
   -9.0573   15.3906   19.8340 H   0  0  0  0  0  0  0  0  0  0  0  0
   -9.2709   17.1069   20.2362 H   0  0  0  0  0  0  0  0  0  0  0  0
   -7.9839   18.7982   24.4762 H   0  0  0  0  0  0  0  0  0  0  0  0
   -7.8474   14.6110   24.1118 H   0  0  0  0  0  0  0  0  0  0  0  0
   -8.6190   19.0242   26.8667 H   0  0  0  0  0  0  0  0  0  0  0  0
   -8.6921   17.9116   29.2376 H   0  0  0  0  0  0  0  0  0  0  0  0
   -8.5136   16.3890   28.3575 H   0  0  0  0  0  0  0  0  0  0  0  0
  -10.7065   17.5360   27.0329 H   0  0  0  0  0  0  0  0  0  0  0  0
  -10.6365   19.2617   28.6446 H   0  0  0  0  0  0  0  0  0  0  0  0
  -10.2948   15.2093   28.2187 H   0  0  0  0  0  0  0  0  0  0  0  0
  -11.7130   16.6048   30.4541 H   0  0  0  0  0  0  0  0  0  0  0  0
  -10.8670   16.4204   32.4438 H   0  0  0  0  0  0  0  0  0  0  0  0
  -11.0533   13.4645   32.4126 H   0  0  0  0  0  0  0  0  0  0  0  0
   -8.5073   14.4910   32.7462 H   0  0  0  0  0  0  0  0  0  0  0  0
   -8.2689   15.3897   35.0266 H   0  0  0  0  0  0  0  0  0  0  0  0
   -9.8397   14.5861   34.8905 H   0  0  0  0  0  0  0  0  0  0  0  0
   -9.7407   16.3580   34.8393 H   0  0  0  0  0  0  0  0  0  0  0  0
   -8.0726   16.6809   31.5458 H   0  0  0  0  0  0  0  0  0  0  0  0
   -7.2812   16.6380   33.1309 H   0  0  0  0  0  0  0  0  0  0  0  0
   -8.7885   17.5462   32.9127 H   0  0  0  0  0  0  0  0  0  0  0  0
   -6.4139   17.6151   28.4060 H   0  0  0  0  0  0  0  0  0  0  0  0
   -6.8045   19.3242   28.3725 H   0  0  0  0  0  0  0  0  0  0  0  0
   -4.5735   16.8342   27.2547 H   0  0  0  0  0  0  0  0  0  0  0  0
   -2.8527   17.1049   25.5146 H   0  0  0  0  0  0  0  0  0  0  0  0
   -2.9268   19.0503   23.9800 H   0  0  0  0  0  0  0  0  0  0  0  0
   -4.7169   20.7469   24.2048 H   0  0  0  0  0  0  0  0  0  0  0  0
   -6.4447   20.5119   25.9525 H   0  0  0  0  0  0  0  0  0  0  0  0
  -12.3300   15.7224   26.8915 H   0  0  0  0  0  0  0  0  0  0  0  0
  -13.0885   16.4255   28.3214 H   0  0  0  0  0  0  0  0  0  0  0  0
  -11.4665   13.2272   27.0876 H   0  0  0  0  0  0  0  0  0  0  0  0
  -12.2421   10.9865   27.7736 H   0  0  0  0  0  0  0  0  0  0  0  0
  -14.0404   10.7578   29.4662 H   0  0  0  0  0  0  0  0  0  0  0  0
  -15.0604   12.7715   30.4810 H   0  0  0  0  0  0  0  0  0  0  0  0
  -14.3021   15.0184   29.8103 H   0  0  0  0  0  0  0  0  0  0  0  0
  -12.2627   12.4465   34.7671 H   0  0  0  0  0  0  0  0  0  0  0  0
  -12.0598   12.1192   33.0284 H   0  0  0  0  0  0  0  0  0  0  0  0
  -14.8878   12.0094   35.5303 H   0  0  0  0  0  0  0  0  0  0  0  0
  -16.3709   10.0303   35.6573 H   0  0  0  0  0  0  0  0  0  0  0  0
  -16.0978    8.1596   34.0566 H   0  0  0  0  0  0  0  0  0  0  0  0
  -14.3353    8.2558   32.3134 H   0  0  0  0  0  0  0  0  0  0  0  0
  -12.8469   10.2121   32.1770 H   0  0  0  0  0  0  0  0  0  0  0  0
   -7.9938   15.2751   26.5086 H   0  0  0  0  0  0  0  0  0  0  0  0
  1  3  1  0  0  0  0
  1  2  2  0  0  0  0
  3  5  1  0  0  0  0
  3  4  1  0  0  0  0
  3 48  1  0  0  0  0
  4 49  1  0  0  0  0
  4 50  1  0  0  0  0
  4 51  1  0  0  0  0
  5 52  1  0  0  0  0
  5 53  1  0  0  0  0
  5 54  1  0  0  0  0
  6 10  1  0  0  0  0
  6 55  1  0  0  0  0
  7  6  1  1  0  0  0
  7 11  1  0  0  0  0
  7  8  1  0  0  0  0
  8  9  1  0  0  0  0
  8 94  1  0  0  0  0
  9 10  1  0  0  0  0
  9 56  1  0  0  0  0
 10  1  1  6  0  0  0
 11 26  1  0  0  0  0
 11 12  1  0  0  0  0
 11 57  1  6  0  0  0
 12 13  1  0  0  0  0
 12 58  1  0  0  0  0
 12 59  1  0  0  0  0
 13 15  1  0  0  0  0
 13 14  1  0  0  0  0
 13 60  1  6  0  0  0
 14 61  1  0  0  0  0
 15 33  1  0  0  0  0
 15 16  1  0  0  0  0
 15 62  1  6  0  0  0
 16 17  1  0  0  0  0
 16 63  1  0  0  0  0
 17 19  1  0  0  0  0
 17 18  2  0  0  0  0
 19 23  1  0  0  0  0
 19 20  1  0  0  0  0
 19 64  1  1  0  0  0
 20 21  1  0  0  0  0
 20 65  1  0  0  0  0
 21 40  1  0  0  0  0
 21 22  2  0  0  0  0
 23 25  1  0  0  0  0
 23 24  1  0  0  0  0
 23 66  1  0  0  0  0
 24 67  1  0  0  0  0
 24 68  1  0  0  0  0
 24 69  1  0  0  0  0
 25 70  1  0  0  0  0
 25 71  1  0  0  0  0
 25 72  1  0  0  0  0
 26 27  1  0  0  0  0
 26 73  1  0  0  0  0
 26 74  1  0  0  0  0
 27 32  1  0  0  0  0
 27 28  1  0  0  0  0
 28 29  1  0  0  0  0
 28 75  1  0  0  0  0
 29 30  1  0  0  0  0
 29 76  1  0  0  0  0
 30 31  1  0  0  0  0
 30 77  1  0  0  0  0
 31 32  1  0  0  0  0
 31 78  1  0  0  0  0
 32 79  1  0  0  0  0
 33 34  1  0  0  0  0
 33 80  1  0  0  0  0
 33 81  1  0  0  0  0
 34 39  1  0  0  0  0
 34 35  1  0  0  0  0
 35 36  1  0  0  0  0
 35 82  1  0  0  0  0
 36 37  1  0  0  0  0
 36 83  1  0  0  0  0
 37 38  1  0  0  0  0
 37 84  1  0  0  0  0
 38 39  1  0  0  0  0
 38 85  1  0  0  0  0
 39 86  1  0  0  0  0
 40 41  1  0  0  0  0
 41 42  1  0  0  0  0
 41 87  1  0  0  0  0
 41 88  1  0  0  0  0
 42 47  1  0  0  0  0
 42 43  1  0  0  0  0
 43 44  1  0  0  0  0
 43 89  1  0  0  0  0
 44 45  1  0  0  0  0
 44 90  1  0  0  0  0
 45 46  1  0  0  0  0
 45 91  1  0  0  0  0
 46 47  1  0  0  0  0
 46 92  1  0  0  0  0
 47 93  1  0  0  0  0
M  CHG  2   6   1   8   1
M  END
$$$$
