SB2
 OpenBabel04041916223D

 43 46  0  0  0  0  0  0  0  0999 V2000
  -13.7819   13.8672   41.3350 N   0  3  0  0  0  0  0  0  0  0  0  0
  -12.4712   14.0157   40.9515 C   0  0  0  0  0  0  0  0  0  0  0  0
  -12.2911   13.4472   39.7737 N   0  0  0  0  0  0  0  0  0  0  0  0
  -13.4598   12.8083   39.4616 C   0  0  0  0  0  0  0  0  0  0  0  0
  -14.4293   13.0256   40.4421 C   0  0  0  0  0  0  0  0  0  0  0  0
  -16.8157   13.2757   41.1303 C   0  0  0  0  0  0  0  0  0  0  0  0
  -15.7524   12.4713   40.7038 C   0  0  0  0  0  0  0  0  0  0  0  0
  -15.9920   11.0965   40.5709 C   0  0  0  0  0  0  0  0  0  0  0  0
  -17.2475   10.6046   40.8591 C   0  0  0  0  0  0  0  0  0  0  0  0
  -18.2833   11.3643   41.2708 N   0  0  0  0  0  0  0  0  0  0  0  0
  -18.0383   12.6860   41.3949 C   0  0  0  0  0  0  0  0  0  0  0  0
  -14.7197   10.9782   36.4018 C   0  0  0  0  0  0  0  0  0  0  0  0
  -13.7205   10.0219   36.2710 C   0  0  0  0  0  0  0  0  0  0  0  0
  -12.6211   10.0104   37.1206 C   0  0  0  0  0  0  0  0  0  0  0  0
  -12.5407   10.9624   38.1443 C   0  0  0  0  0  0  0  0  0  0  0  0
  -13.5609   11.9041   38.3253 C   0  0  0  0  0  0  0  0  0  0  0  0
  -14.6423   11.9253   37.4322 C   0  0  0  0  0  0  0  0  0  0  0  0
  -11.4360   14.6892   41.7412 C   0  0  0  0  0  0  0  0  0  0  0  0
  -10.5713   15.5804   41.1148 C   0  0  0  0  0  0  0  0  0  0  0  0
   -9.5382   16.1916   41.8303 C   0  0  0  0  0  0  0  0  0  0  0  0
   -9.2958   15.9231   43.1868 C   0  0  0  0  0  0  0  0  0  0  0  0
  -10.1575   15.0286   43.8314 C   0  0  0  0  0  0  0  0  0  0  0  0
  -11.2246   14.4205   43.1093 C   0  0  0  0  0  0  0  0  0  0  0  0
   -7.9052   16.8622   43.8544 S   0  0  1  0  0  0  0  0  0  0  0  0
   -8.4532   18.1953   44.2593 O   0  0  0  0  0  0  0  0  0  0  0  0
   -7.2105   16.0265   45.2707 C   0  0  0  0  0  0  0  0  0  0  0  0
  -13.8176    9.0891   35.3145 F   0  0  0  0  0  0  0  0  0  0  0  0
  -14.1775   14.2306   42.1864 H   0  0  0  0  0  0  0  0  0  0  0  0
  -16.6992   14.3512   41.2464 H   0  0  0  0  0  0  0  0  0  0  0  0
  -15.2066   10.4161   40.2562 H   0  0  0  0  0  0  0  0  0  0  0  0
  -17.4628    9.5221   40.7626 H   0  0  0  0  0  0  0  0  0  0  0  0
  -18.8880   13.2792   41.7268 H   0  0  0  0  0  0  0  0  0  0  0  0
  -15.5570   10.9779   35.7173 H   0  0  0  0  0  0  0  0  0  0  0  0
  -11.8421    9.2679   36.9933 H   0  0  0  0  0  0  0  0  0  0  0  0
  -11.6819   10.9513   38.8145 H   0  0  0  0  0  0  0  0  0  0  0  0
  -15.4303   12.6680   37.5324 H   0  0  0  0  0  0  0  0  0  0  0  0
  -10.6838   15.8039   40.0541 H   0  0  0  0  0  0  0  0  0  0  0  0
   -8.8978   16.8994   41.3037 H   0  0  0  0  0  0  0  0  0  0  0  0
  -10.0425   14.7768   44.8822 H   0  0  0  0  0  0  0  0  0  0  0  0
  -11.8666   13.6999   43.6156 H   0  0  0  0  0  0  0  0  0  0  0  0
   -6.6169   16.7721   45.8181 H   0  0  0  0  0  0  0  0  0  0  0  0
   -6.5074   15.2659   44.9215 H   0  0  0  0  0  0  0  0  0  0  0  0
   -7.9326   15.5938   45.9627 H   0  0  0  0  0  0  0  0  0  0  0  0
  1  5  1  0  0  0  0
  1  2  2  0  0  0  0
  1 28  1  0  0  0  0
  2 18  1  0  0  0  0
  2  3  1  0  0  0  0
  3  4  1  0  0  0  0
  4 16  1  0  0  0  0
  4  5  2  0  0  0  0
  5  7  1  0  0  0  0
  6  7  2  0  0  0  0
  6 11  1  0  0  0  0
  6 29  1  0  0  0  0
  7  8  1  0  0  0  0
  8  9  2  0  0  0  0
  8 30  1  0  0  0  0
  9 10  1  0  0  0  0
  9 31  1  0  0  0  0
 10 11  2  0  0  0  0
 11 32  1  0  0  0  0
 12 13  2  0  0  0  0
 12 17  1  0  0  0  0
 12 33  1  0  0  0  0
 13 27  1  0  0  0  0
 13 14  1  0  0  0  0
 14 15  2  0  0  0  0
 14 34  1  0  0  0  0
 15 16  1  0  0  0  0
 15 35  1  0  0  0  0
 16 17  2  0  0  0  0
 17 36  1  0  0  0  0
 18 23  2  0  0  0  0
 18 19  1  0  0  0  0
 19 20  2  0  0  0  0
 19 37  1  0  0  0  0
 20 21  1  0  0  0  0
 20 38  1  0  0  0  0
 21 22  2  0  0  0  0
 22 23  1  0  0  0  0
 22 39  1  0  0  0  0
 23 40  1  0  0  0  0
 24 21  1  1  0  0  0
 24 26  1  0  0  0  0
 24 25  2  0  0  0  0
 26 41  1  0  0  0  0
 26 42  1  0  0  0  0
 26 43  1  0  0  0  0
M  CHG  1   1   1
M  END
$$$$
