SDA
 OpenBabel04041917573D

 19 19  0  0  0  0  0  0  0  0999 V2000
   15.3443    2.8564   16.5417 S   0  0  0  0  0  0  0  0  0  0  0  0
   15.8809    1.5551   15.6232 N   0  0  0  0  0  0  0  0  0  0  0  0
   16.0472    2.8192   17.7916 O   0  0  0  0  0  0  0  0  0  0  0  0
   13.9083    2.8514   16.4412 O   0  0  0  0  0  0  0  0  0  0  0  0
   15.9924    4.1991   15.5849 C   0  0  0  0  0  0  0  0  0  0  0  0
   17.3683    4.2596   15.3573 C   0  0  0  0  0  0  0  0  0  0  0  0
   17.8812    5.3204   14.6048 C   0  0  0  0  0  0  0  0  0  0  0  0
   19.5888    5.3749   14.3334 Cl  0  0  0  0  0  0  0  0  0  0  0  0
   17.0411    6.3398   14.1030 C   0  0  0  0  0  0  0  0  0  0  0  0
   17.5454    7.3248   13.2408 N   0  0  0  0  0  0  0  0  0  0  0  0
   15.6616    6.2186   14.3352 C   0  0  0  0  0  0  0  0  0  0  0  0
   14.5570    7.4087   13.7316 Cl  0  0  0  0  0  0  0  0  0  0  0  0
   15.1317    5.1580   15.0807 C   0  0  0  0  0  0  0  0  0  0  0  0
   16.7295    1.1288   15.9945 H   0  0  0  0  0  0  0  0  0  0  0  0
   15.1156    0.9106   15.4236 H   0  0  0  0  0  0  0  0  0  0  0  0
   18.0360    3.4977   15.7541 H   0  0  0  0  0  0  0  0  0  0  0  0
   18.5489    7.4861   13.2433 H   0  0  0  0  0  0  0  0  0  0  0  0
   16.9500    8.1270   13.0537 H   0  0  0  0  0  0  0  0  0  0  0  0
   14.0639    5.1014   15.2536 H   0  0  0  0  0  0  0  0  0  0  0  0
  1  2  1  0  0  0  0
  1  3  2  0  0  0  0
  1  4  2  0  0  0  0
  1  5  1  0  0  0  0
  2 14  1  0  0  0  0
  2 15  1  0  0  0  0
  5  6  2  0  0  0  0
  5 13  1  0  0  0  0
  6  7  1  0  0  0  0
  6 16  1  0  0  0  0
  7  8  1  0  0  0  0
  7  9  2  0  0  0  0
  9 10  1  0  0  0  0
  9 11  1  0  0  0  0
 10 17  1  0  0  0  0
 10 18  1  0  0  0  0
 11 12  1  0  0  0  0
 11 13  2  0  0  0  0
 13 19  1  0  0  0  0
M  END
$$$$
