SHY
 OpenBabel04041917233D

 59 64  0  0  1  0  0  0  0  0999 V2000
   11.2394   -9.9351   24.4418 N   0  0  0  0  0  0  0  0  0  0  0  0
   11.4742  -11.0061   23.7232 C   0  0  0  0  0  0  0  0  0  0  0  0
   10.7025  -12.0618   23.9010 N   0  0  0  0  0  0  0  0  0  0  0  0
   12.5945  -11.0401   22.7390 C   0  0  0  0  0  0  0  0  0  0  0  0
   13.3650   -9.8984   22.4679 C   0  0  0  0  0  0  0  0  0  0  0  0
   14.4622   -9.9437   21.6022 C   0  0  0  0  0  0  0  0  0  0  0  0
   14.8201  -11.1364   20.9684 C   0  0  0  0  0  0  0  0  0  0  0  0
   14.0258  -12.2671   21.1874 C   0  0  0  0  0  0  0  0  0  0  0  0
   12.9366  -12.2190   22.0610 C   0  0  0  0  0  0  0  0  0  0  0  0
   16.0484  -11.1533   20.0968 C   0  0  2  0  0  0  0  0  0  0  0  0
   16.0215  -12.1935   19.0088 N   0  3  1  0  0  0  0  0  0  0  0  0
   15.0898  -11.8590   17.8506 C   0  0  0  0  0  0  0  0  0  0  0  0
   16.0141  -11.7288   16.6432 C   0  0  1  0  0  0  0  0  0  0  0  0
   17.3671  -11.3673   17.2403 C   0  0  0  0  0  0  0  0  0  0  0  0
   17.4513  -12.2602   18.4735 C   0  0  1  0  0  0  0  0  0  0  0  0
   18.3402  -11.7166   19.5957 C   0  0  2  0  0  0  0  0  0  0  0  0
   19.1568  -12.8360   20.1799 C   0  0  0  0  0  0  0  0  0  0  0  0
   18.5794  -13.2405   21.3479 N   0  0  0  0  0  0  0  0  0  0  0  0
   17.5119  -12.4701   21.6961 C   0  0  0  0  0  0  0  0  0  0  0  0
   16.7341  -12.6820   22.6108 O   0  0  0  0  0  0  0  0  0  0  0  0
   17.4055  -11.3163   20.7402 C   0  0  2  0  0  0  0  0  0  0  0  0
   18.9965  -14.4230   22.0920 C   0  0  0  0  0  0  0  0  0  0  0  0
   20.0559  -14.1049   23.1168 C   0  0  0  0  0  0  0  0  0  0  0  0
   19.6662  -13.8177   24.4448 C   0  0  0  0  0  0  0  0  0  0  0  0
   20.6128  -13.4990   25.4202 C   0  0  0  0  0  0  0  0  0  0  0  0
   21.9372  -13.4749   25.0421 C   0  0  0  0  0  0  0  0  0  0  0  0
   22.9835  -13.1724   25.8541 O   0  0  0  0  0  0  0  0  0  0  0  0
   24.0889  -13.2983   24.9341 C   0  0  0  0  0  0  0  0  0  0  0  0
   16.1403  -12.9954   16.0108 O   0  0  0  0  0  0  0  0  0  0  0  0
   23.6811  -13.7015   23.6074 O   0  0  0  0  0  0  0  0  0  0  0  0
   22.3302  -13.7656   23.7596 C   0  0  0  0  0  0  0  0  0  0  0  0
   21.4183  -14.0829   22.7704 C   0  0  0  0  0  0  0  0  0  0  0  0
   20.1001  -13.3449   19.6041 O   0  0  0  0  0  0  0  0  0  0  0  0
   11.8115   -9.0982   24.3809 H   0  0  0  0  0  0  0  0  0  0  0  0
   10.8237  -12.9230   23.3870 H   0  0  0  0  0  0  0  0  0  0  0  0
    9.9559  -12.0701   24.5845 H   0  0  0  0  0  0  0  0  0  0  0  0
   13.1554   -8.9346   22.9256 H   0  0  0  0  0  0  0  0  0  0  0  0
   15.0360   -9.0298   21.4428 H   0  0  0  0  0  0  0  0  0  0  0  0
   14.2423  -13.2281   20.7269 H   0  0  0  0  0  0  0  0  0  0  0  0
   12.3973  -13.1507   22.2027 H   0  0  0  0  0  0  0  0  0  0  0  0
   16.0578  -10.1940   19.5547 H   0  0  0  0  0  0  0  0  0  0  0  0
   14.5707  -10.9244   18.0819 H   0  0  0  0  0  0  0  0  0  0  0  0
   14.3716  -12.6813   17.7660 H   0  0  0  0  0  0  0  0  0  0  0  0
   15.6581  -10.9853   15.9241 H   0  0  0  0  0  0  0  0  0  0  0  0
   17.3904  -10.3069   17.5208 H   0  0  0  0  0  0  0  0  0  0  0  0
   18.1993  -11.5716   16.5633 H   0  0  0  0  0  0  0  0  0  0  0  0
   17.6399  -13.3090   18.2140 H   0  0  0  0  0  0  0  0  0  0  0  0
   18.9881  -10.8985   19.2732 H   0  0  0  0  0  0  0  0  0  0  0  0
   17.7392  -10.4063   21.2527 H   0  0  0  0  0  0  0  0  0  0  0  0
   19.3535  -15.1933   21.4003 H   0  0  0  0  0  0  0  0  0  0  0  0
   18.1179  -14.8389   22.6048 H   0  0  0  0  0  0  0  0  0  0  0  0
   18.6147  -13.8550   24.7284 H   0  0  0  0  0  0  0  0  0  0  0  0
   20.3195  -13.2851   26.4414 H   0  0  0  0  0  0  0  0  0  0  0  0
   24.7960  -14.0345   25.3336 H   0  0  0  0  0  0  0  0  0  0  0  0
   24.5953  -12.3286   24.8620 H   0  0  0  0  0  0  0  0  0  0  0  0
   15.3476  -13.1619   15.4640 H   0  0  0  0  0  0  0  0  0  0  0  0
   21.7609  -14.3107   21.7653 H   0  0  0  0  0  0  0  0  0  0  0  0
   10.4819   -9.8870   25.1078 H   0  0  0  0  0  0  0  0  0  0  0  0
   15.7815  -13.1258   19.3732 H   0  0  0  0  0  0  0  0  0  0  0  0
  1  2  2  0  0  0  0
  1 34  1  0  0  0  0
  1 58  1  0  0  0  0
  2  3  1  0  0  0  0
  2  4  1  0  0  0  0
  3 35  1  0  0  0  0
  3 36  1  0  0  0  0
  4  5  2  0  0  0  0
  4  9  1  0  0  0  0
  5  6  1  0  0  0  0
  5 37  1  0  0  0  0
  6  7  2  0  0  0  0
  6 38  1  0  0  0  0
  7  8  1  0  0  0  0
  7 10  1  0  0  0  0
  8  9  2  0  0  0  0
  8 39  1  0  0  0  0
  9 40  1  0  0  0  0
 10 11  1  0  0  0  0
 10 21  1  0  0  0  0
 10 41  1  6  0  0  0
 11 12  1  0  0  0  0
 11 15  1  0  0  0  0
 11 59  1  1  0  0  0
 12 13  1  0  0  0  0
 12 42  1  0  0  0  0
 12 43  1  0  0  0  0
 13 14  1  0  0  0  0
 13 29  1  0  0  0  0
 13 44  1  6  0  0  0
 14 15  1  0  0  0  0
 14 45  1  0  0  0  0
 14 46  1  0  0  0  0
 15 16  1  0  0  0  0
 15 47  1  6  0  0  0
 16 17  1  0  0  0  0
 16 21  1  0  0  0  0
 16 48  1  6  0  0  0
 17 18  1  0  0  0  0
 17 33  2  0  0  0  0
 18 19  1  0  0  0  0
 18 22  1  0  0  0  0
 19 20  2  0  0  0  0
 19 21  1  0  0  0  0
 21 49  1  1  0  0  0
 22 23  1  0  0  0  0
 22 50  1  0  0  0  0
 22 51  1  0  0  0  0
 23 24  2  0  0  0  0
 23 32  1  0  0  0  0
 24 25  1  0  0  0  0
 24 52  1  0  0  0  0
 25 26  2  0  0  0  0
 25 53  1  0  0  0  0
 26 27  1  0  0  0  0
 26 31  1  0  0  0  0
 27 28  1  0  0  0  0
 28 30  1  0  0  0  0
 28 54  1  0  0  0  0
 28 55  1  0  0  0  0
 29 56  1  0  0  0  0
 30 31  1  0  0  0  0
 31 32  2  0  0  0  0
 32 57  1  0  0  0  0
M  CHG  1  11   1
M  END
$$$$
