SI1
 OpenBabel04041917233D

 59 59  0  0  1  0  0  0  0  0999 V2000
   34.3726    4.7648   27.3939 N   0  0  0  0  0  0  0  0  0  0  0  0
   33.1761    2.9571   27.8982 N   0  0  0  0  0  0  0  0  0  0  0  0
   33.2232    4.2619   27.7748 C   0  0  0  0  0  0  0  0  0  0  0  0
   32.0383    5.1058   28.0623 C   0  0  0  0  0  0  0  0  0  0  0  0
   32.0728    6.4967   27.8921 C   0  0  0  0  0  0  0  0  0  0  0  0
   30.9760    7.2946   28.2387 C   0  0  0  0  0  0  0  0  0  0  0  0
   29.7872    6.7056   28.6767 C   0  0  0  0  0  0  0  0  0  0  0  0
   29.7229    5.3197   28.8150 C   0  0  0  0  0  0  0  0  0  0  0  0
   30.8435    4.5330   28.5265 C   0  0  0  0  0  0  0  0  0  0  0  0
   28.5814    7.5535   28.9771 C   0  0  0  0  0  0  0  0  0  0  0  0
   28.7547    8.3204   30.1736 N   0  0  0  0  0  0  0  0  0  0  0  0
   29.0782    9.6255   30.1171 C   0  0  0  0  0  0  0  0  0  0  0  0
   29.2391   10.2118   29.0405 O   0  0  0  0  0  0  0  0  0  0  0  0
   29.1874   10.3790   31.4184 C   0  0  1  0  0  0  0  0  0  0  0  0
   30.3146   11.2975   31.3127 N   0  0  0  0  0  0  0  0  0  0  0  0
   31.6407   10.9134   31.1997 C   0  0  0  0  0  0  0  0  0  0  0  0
   31.8790    9.7036   31.0774 O   0  0  0  0  0  0  0  0  0  0  0  0
   32.6980   11.9480   31.1336 C   0  0  1  0  0  0  0  0  0  0  0  0
   33.3839   12.1066   32.4941 C   0  0  0  0  0  0  0  0  0  0  0  0
   32.4789   12.1278   33.5854 O   0  0  0  0  0  0  0  0  0  0  0  0
   33.7798   11.5848   30.1864 N   0  0  0  0  0  0  0  0  0  0  0  0
   33.8065   12.1764   28.6177 S   0  0  0  0  0  0  0  0  0  0  0  0
   33.3635   13.5595   28.6271 O   0  0  0  0  0  0  0  0  0  0  0  0
   35.1277   11.8423   28.1328 O   0  0  0  0  0  0  0  0  0  0  0  0
   32.6051   11.1378   27.7677 C   0  0  0  0  0  0  0  0  0  0  0  0
   32.4745   11.3960   26.2631 C   0  0  0  0  0  0  0  0  0  0  0  0
   31.4663   10.4054   25.6447 C   0  0  0  0  0  0  0  0  0  0  0  0
   31.3451   10.5990   24.1383 C   0  0  0  0  0  0  0  0  0  0  0  0
   27.9213   11.1839   31.6282 C   0  0  0  0  0  0  0  0  0  0  0  0
   34.5360    5.7568   27.2716 H   0  0  0  0  0  0  0  0  0  0  0  0
   32.3446    2.4697   28.1841 H   0  0  0  0  0  0  0  0  0  0  0  0
   34.0024    2.4064   27.7007 H   0  0  0  0  0  0  0  0  0  0  0  0
   32.9517    6.9826   27.4862 H   0  0  0  0  0  0  0  0  0  0  0  0
   31.0495    8.3794   28.1675 H   0  0  0  0  0  0  0  0  0  0  0  0
   28.8022    4.8456   29.1509 H   0  0  0  0  0  0  0  0  0  0  0  0
   30.7612    3.4614   28.6686 H   0  0  0  0  0  0  0  0  0  0  0  0
   27.7058    6.9192   29.1389 H   0  0  0  0  0  0  0  0  0  0  0  0
   28.3842    8.2264   28.1370 H   0  0  0  0  0  0  0  0  0  0  0  0
   28.6946    7.8678   31.0689 H   0  0  0  0  0  0  0  0  0  0  0  0
   29.3649    9.6696   32.2276 H   0  0  0  0  0  0  0  0  0  0  0  0
   30.0924   12.2743   31.3529 H   0  0  0  0  0  0  0  0  0  0  0  0
   32.2256   12.8762   30.8204 H   0  0  0  0  0  0  0  0  0  0  0  0
   33.9453   13.0493   32.4713 H   0  0  0  0  0  0  0  0  0  0  0  0
   34.1063   11.2881   32.6466 H   0  0  0  0  0  0  0  0  0  0  0  0
   32.9912   12.2475   34.4057 H   0  0  0  0  0  0  0  0  0  0  0  0
   34.5491   11.0032   30.5388 H   0  0  0  0  0  0  0  0  0  0  0  0
   31.6288   11.2944   28.2328 H   0  0  0  0  0  0  0  0  0  0  0  0
   32.9236   10.0991   27.9121 H   0  0  0  0  0  0  0  0  0  0  0  0
   33.4477   11.2747   25.7691 H   0  0  0  0  0  0  0  0  0  0  0  0
   32.1272   12.4223   26.0841 H   0  0  0  0  0  0  0  0  0  0  0  0
   30.4799   10.5462   26.1106 H   0  0  0  0  0  0  0  0  0  0  0  0
   31.7896    9.3750   25.8526 H   0  0  0  0  0  0  0  0  0  0  0  0
   30.6263    9.8890   23.7088 H   0  0  0  0  0  0  0  0  0  0  0  0
   32.3167   10.4415   23.6541 H   0  0  0  0  0  0  0  0  0  0  0  0
   31.0040   11.6161   23.9107 H   0  0  0  0  0  0  0  0  0  0  0  0
   27.0503   10.5272   31.6868 H   0  0  0  0  0  0  0  0  0  0  0  0
   27.7638   11.8968   30.8037 H   0  0  0  0  0  0  0  0  0  0  0  0
   28.0042   11.7566   32.5581 H   0  0  0  0  0  0  0  0  0  0  0  0
   35.1568    4.1496   27.2088 H   0  0  0  0  0  0  0  0  0  0  0  0
  1  3  2  0  0  0  0
  1 30  1  0  0  0  0
  1 59  1  0  0  0  0
  2  3  1  0  0  0  0
  2 31  1  0  0  0  0
  2 32  1  0  0  0  0
  3  4  1  0  0  0  0
  4  5  2  0  0  0  0
  4  9  1  0  0  0  0
  5  6  1  0  0  0  0
  5 33  1  0  0  0  0
  6  7  2  0  0  0  0
  6 34  1  0  0  0  0
  7  8  1  0  0  0  0
  7 10  1  0  0  0  0
  8  9  2  0  0  0  0
  8 35  1  0  0  0  0
  9 36  1  0  0  0  0
 10 11  1  0  0  0  0
 10 37  1  0  0  0  0
 10 38  1  0  0  0  0
 11 12  1  0  0  0  0
 11 39  1  0  0  0  0
 12 13  2  0  0  0  0
 12 14  1  0  0  0  0
 14 15  1  0  0  0  0
 14 29  1  0  0  0  0
 14 40  1  1  0  0  0
 15 16  1  0  0  0  0
 15 41  1  0  0  0  0
 16 17  2  0  0  0  0
 16 18  1  0  0  0  0
 18 19  1  0  0  0  0
 18 21  1  0  0  0  0
 18 42  1  6  0  0  0
 19 20  1  0  0  0  0
 19 43  1  0  0  0  0
 19 44  1  0  0  0  0
 20 45  1  0  0  0  0
 21 22  1  0  0  0  0
 21 46  1  0  0  0  0
 22 23  2  0  0  0  0
 22 24  2  0  0  0  0
 22 25  1  0  0  0  0
 25 26  1  0  0  0  0
 25 47  1  0  0  0  0
 25 48  1  0  0  0  0
 26 27  1  0  0  0  0
 26 49  1  0  0  0  0
 26 50  1  0  0  0  0
 27 28  1  0  0  0  0
 27 51  1  0  0  0  0
 27 52  1  0  0  0  0
 28 53  1  0  0  0  0
 28 54  1  0  0  0  0
 28 55  1  0  0  0  0
 29 56  1  0  0  0  0
 29 57  1  0  0  0  0
 29 58  1  0  0  0  0
M  END
$$$$
