SK1
 OpenBabel04041917243D

 60 61  0  0  1  0  0  0  0  0999 V2000
   28.4525    8.1539   29.6679 N   0  0  0  0  0  0  0  0  0  0  0  0
   34.2566    4.7168   26.7987 N   0  0  0  0  0  0  0  0  0  0  0  0
   33.1497    4.2586   27.3219 C   0  0  0  0  0  0  0  0  0  0  0  0
   33.0533    2.9701   27.5155 N   0  0  0  0  0  0  0  0  0  0  0  0
   32.0145    5.1247   27.6773 C   0  0  0  0  0  0  0  0  0  0  0  0
   31.9353    6.4652   27.3054 C   0  0  0  0  0  0  0  0  0  0  0  0
   30.7444    7.1698   27.5420 C   0  0  0  0  0  0  0  0  0  0  0  0
   29.6725    6.5868   28.2298 C   0  0  0  0  0  0  0  0  0  0  0  0
   29.8049    5.2855   28.7028 C   0  0  0  0  0  0  0  0  0  0  0  0
   30.9554    4.5601   28.4031 C   0  0  0  0  0  0  0  0  0  0  0  0
   28.3871    7.3413   28.4831 C   0  0  0  0  0  0  0  0  0  0  0  0
   28.8015    9.4824   29.6139 C   0  0  0  0  0  0  0  0  0  0  0  0
   28.9781   10.0855   28.5475 O   0  0  0  0  0  0  0  0  0  0  0  0
   28.9209   10.1565   30.9731 C   0  0  1  0  0  0  0  0  0  0  0  0
   29.9458   11.1789   30.9566 N   0  0  0  0  0  0  0  0  0  0  0  0
   31.2530   10.8132   30.7919 C   0  0  0  0  0  0  0  0  0  0  0  0
   31.5702    9.6343   30.6254 O   0  0  0  0  0  0  0  0  0  0  0  0
   32.2778   11.9290   30.7308 C   0  0  1  0  0  0  0  0  0  0  0  0
   33.0016   12.0844   32.0665 C   0  0  0  0  0  0  0  0  0  0  0  0
   32.0546   12.0290   33.1124 O   0  0  0  0  0  0  0  0  0  0  0  0
   33.3198   11.6310   29.7739 N   0  0  0  0  0  0  0  0  0  0  0  0
   33.2333   11.8204   28.1545 S   0  0  0  0  0  0  0  0  0  0  0  0
   34.5477   11.4470   27.7075 O   0  0  0  0  0  0  0  0  0  0  0  0
   32.7320   13.1870   27.9423 O   0  0  0  0  0  0  0  0  0  0  0  0
   31.9333   10.6464   27.5825 C   0  0  0  0  0  0  0  0  0  0  0  0
   31.8461   10.8886   26.1026 C   0  0  0  0  0  0  0  0  0  0  0  0
   32.5664   10.0994   25.2064 C   0  0  0  0  0  0  0  0  0  0  0  0
   32.6752   10.5073   23.8807 C   0  0  0  0  0  0  0  0  0  0  0  0
   32.1032   11.7158   23.4624 C   0  0  0  0  0  0  0  0  0  0  0  0
   31.3252   12.4689   24.3383 C   0  0  0  0  0  0  0  0  0  0  0  0
   31.1302   12.0038   25.6343 C   0  0  0  0  0  0  0  0  0  0  0  0
   27.6043   10.7622   31.3855 C   0  0  0  0  0  0  0  0  0  0  0  0
   28.2749    7.7281   30.5715 H   0  0  0  0  0  0  0  0  0  0  0  0
   34.4189    5.6994   26.6084 H   0  0  0  0  0  0  0  0  0  0  0  0
   32.2327    2.5412   27.8957 H   0  0  0  0  0  0  0  0  0  0  0  0
   33.8212    2.3617   27.2710 H   0  0  0  0  0  0  0  0  0  0  0  0
   32.7726    6.9731   26.8342 H   0  0  0  0  0  0  0  0  0  0  0  0
   30.6472    8.1871   27.1685 H   0  0  0  0  0  0  0  0  0  0  0  0
   29.0138    4.8214   29.2793 H   0  0  0  0  0  0  0  0  0  0  0  0
   31.0086    3.5433   28.7685 H   0  0  0  0  0  0  0  0  0  0  0  0
   28.1584    7.9829   27.6275 H   0  0  0  0  0  0  0  0  0  0  0  0
   27.5620    6.6302   28.6138 H   0  0  0  0  0  0  0  0  0  0  0  0
   29.2253    9.3822   31.6854 H   0  0  0  0  0  0  0  0  0  0  0  0
   29.6868   12.1434   31.1331 H   0  0  0  0  0  0  0  0  0  0  0  0
   31.7595   12.8573   30.4795 H   0  0  0  0  0  0  0  0  0  0  0  0
   33.5320   13.0495   32.0890 H   0  0  0  0  0  0  0  0  0  0  0  0
   33.7585   11.2905   32.2060 H   0  0  0  0  0  0  0  0  0  0  0  0
   32.5308   12.1341   33.9579 H   0  0  0  0  0  0  0  0  0  0  0  0
   34.2221   11.3371   30.1359 H   0  0  0  0  0  0  0  0  0  0  0  0
   30.9871   10.9015   28.0576 H   0  0  0  0  0  0  0  0  0  0  0  0
   32.2076    9.6195   27.8189 H   0  0  0  0  0  0  0  0  0  0  0  0
   33.0282    9.1700   25.5323 H   0  0  0  0  0  0  0  0  0  0  0  0
   33.2235    9.8994   23.1664 H   0  0  0  0  0  0  0  0  0  0  0  0
   32.2505   12.0562   22.4408 H   0  0  0  0  0  0  0  0  0  0  0  0
   30.8815   13.4106   24.0192 H   0  0  0  0  0  0  0  0  0  0  0  0
   30.4316   12.5125   26.3004 H   0  0  0  0  0  0  0  0  0  0  0  0
   26.8155   10.0098   31.3702 H   0  0  0  0  0  0  0  0  0  0  0  0
   27.3268   11.5820   30.7090 H   0  0  0  0  0  0  0  0  0  0  0  0
   27.6975   11.1688   32.3972 H   0  0  0  0  0  0  0  0  0  0  0  0
   35.0104    4.0764   26.5711 H   0  0  0  0  0  0  0  0  0  0  0  0
  1 11  1  0  0  0  0
  1 12  1  0  0  0  0
  1 33  1  0  0  0  0
  2  3  2  0  0  0  0
  2 34  1  0  0  0  0
  2 60  1  0  0  0  0
  3  4  1  0  0  0  0
  3  5  1  0  0  0  0
  4 35  1  0  0  0  0
  4 36  1  0  0  0  0
  5  6  2  0  0  0  0
  5 10  1  0  0  0  0
  6  7  1  0  0  0  0
  6 37  1  0  0  0  0
  7  8  2  0  0  0  0
  7 38  1  0  0  0  0
  8  9  1  0  0  0  0
  8 11  1  0  0  0  0
  9 10  2  0  0  0  0
  9 39  1  0  0  0  0
 10 40  1  0  0  0  0
 11 41  1  0  0  0  0
 11 42  1  0  0  0  0
 12 13  2  0  0  0  0
 12 14  1  0  0  0  0
 14 15  1  0  0  0  0
 14 32  1  0  0  0  0
 14 43  1  1  0  0  0
 15 16  1  0  0  0  0
 15 44  1  0  0  0  0
 16 17  2  0  0  0  0
 16 18  1  0  0  0  0
 18 19  1  0  0  0  0
 18 21  1  0  0  0  0
 18 45  1  6  0  0  0
 19 20  1  0  0  0  0
 19 46  1  0  0  0  0
 19 47  1  0  0  0  0
 20 48  1  0  0  0  0
 21 22  1  0  0  0  0
 21 49  1  0  0  0  0
 22 23  2  0  0  0  0
 22 24  2  0  0  0  0
 22 25  1  0  0  0  0
 25 26  1  0  0  0  0
 25 50  1  0  0  0  0
 25 51  1  0  0  0  0
 26 27  2  0  0  0  0
 26 31  1  0  0  0  0
 27 28  1  0  0  0  0
 27 52  1  0  0  0  0
 28 29  2  0  0  0  0
 28 53  1  0  0  0  0
 29 30  1  0  0  0  0
 29 54  1  0  0  0  0
 30 31  2  0  0  0  0
 30 55  1  0  0  0  0
 31 56  1  0  0  0  0
 32 57  1  0  0  0  0
 32 58  1  0  0  0  0
 32 59  1  0  0  0  0
M  END
$$$$
