SNP
 OpenBabel04041914213D

 39 41  0  0  1  0  0  0  0  0999 V2000
   24.2743   54.9010   90.6101 C   0  0  0  0  0  0  0  0  0  0  0  0
   23.9823   54.2134   91.7502 C   0  0  0  0  0  0  0  0  0  0  0  0
   22.6569   53.7852   91.9936 C   0  0  0  0  0  0  0  0  0  0  0  0
   21.6501   54.0376   91.0874 C   0  0  0  0  0  0  0  0  0  0  0  0
   20.9030   54.9992   88.9232 C   0  0  0  0  0  0  0  0  0  0  0  0
   21.1574   55.6679   87.7609 C   0  0  0  0  0  0  0  0  0  0  0  0
   22.4569   56.1038   87.4644 C   0  0  0  0  0  0  0  0  0  0  0  0
   23.4756   55.8228   88.4091 C   0  0  0  0  0  0  0  0  0  0  0  0
   23.2674   55.1224   89.6745 C   0  0  0  0  0  0  0  0  0  0  0  0
   21.9259   54.7271   89.8537 C   0  0  0  0  0  0  0  0  0  0  0  0
   25.5518   55.3209   90.2340 O   0  0  0  0  0  0  0  0  0  0  0  0
   26.4203   55.8070   91.2696 C   0  0  0  0  0  0  0  0  0  0  0  0
   27.6771   56.4037   90.6160 C   0  0  1  0  0  0  0  0  0  0  0  0
   28.4340   55.3676   89.9902 O   0  0  0  0  0  0  0  0  0  0  0  0
   27.2936   57.4306   89.5601 C   0  0  0  0  0  0  0  0  0  0  0  0
   28.3506   58.4865   89.5427 N   0  3  0  0  0  0  0  0  0  0  0  0
   28.2271   59.3760   88.3888 C   0  0  0  0  0  0  0  0  0  0  0  0
   29.3463   59.2245   87.4187 C   0  0  0  0  0  0  0  0  0  0  0  0
   29.0558   60.6046   88.4611 C   0  0  0  0  0  0  0  0  0  0  0  0
   24.7533   53.9808   92.4815 H   0  0  0  0  0  0  0  0  0  0  0  0
   22.4401   53.2404   92.9233 H   0  0  0  0  0  0  0  0  0  0  0  0
   20.6341   53.6938   91.3028 H   0  0  0  0  0  0  0  0  0  0  0  0
   19.9046   54.6469   89.1581 H   0  0  0  0  0  0  0  0  0  0  0  0
   20.3396   55.8522   87.0222 H   0  0  0  0  0  0  0  0  0  0  0  0
   22.6860   56.6233   86.5288 H   0  0  0  0  0  0  0  0  0  0  0  0
   24.5110   56.1634   88.1762 H   0  0  0  0  0  0  0  0  0  0  0  0
   26.7338   54.9976   91.9331 H   0  0  0  0  0  0  0  0  0  0  0  0
   25.9210   56.6013   91.8391 H   0  0  0  0  0  0  0  0  0  0  0  0
   28.3206   56.8560   91.3849 H   0  0  0  0  0  0  0  0  0  0  0  0
   29.2193   55.7187   89.5428 H   0  0  0  0  0  0  0  0  0  0  0  0
   26.3681   57.9610   89.7891 H   0  0  0  0  0  0  0  0  0  0  0  0
   27.2714   57.0061   88.5475 H   0  0  0  0  0  0  0  0  0  0  0  0
   28.2922   59.0403   90.4062 H   0  0  0  0  0  0  0  0  0  0  0  0
   27.2667   59.5840   87.9279 H   0  0  0  0  0  0  0  0  0  0  0  0
   28.9432   58.9337   86.4027 H   0  0  0  0  0  0  0  0  0  0  0  0
   29.9601   58.2828   87.5603 H   0  0  0  0  0  0  0  0  0  0  0  0
   29.4097   60.8723   89.4992 H   0  0  0  0  0  0  0  0  0  0  0  0
   28.3990   61.5204   88.3308 H   0  0  0  0  0  0  0  0  0  0  0  0
   29.3066   58.0948   89.5670 H   0  0  0  0  0  0  0  0  0  0  0  0
  1  2  2  0  0  0  0
  1  9  1  0  0  0  0
  1 11  1  0  0  0  0
  2  3  1  0  0  0  0
  2 20  1  0  0  0  0
  3  4  2  0  0  0  0
  3 21  1  0  0  0  0
  4 10  1  0  0  0  0
  4 22  1  0  0  0  0
  5  6  2  0  0  0  0
  5 10  1  0  0  0  0
  5 23  1  0  0  0  0
  6  7  1  0  0  0  0
  6 24  1  0  0  0  0
  7  8  2  0  0  0  0
  7 25  1  0  0  0  0
  8  9  1  0  0  0  0
  8 26  1  0  0  0  0
  9 10  2  0  0  0  0
 11 12  1  0  0  0  0
 12 13  1  0  0  0  0
 12 27  1  0  0  0  0
 12 28  1  0  0  0  0
 13 14  1  0  0  0  0
 13 15  1  0  0  0  0
 13 29  1  1  0  0  0
 14 30  1  0  0  0  0
 15 16  1  0  0  0  0
 15 31  1  0  0  0  0
 15 32  1  0  0  0  0
 16 17  1  0  0  0  0
 16 33  1  0  0  0  0
 16 39  1  0  0  0  0
 17 18  1  0  0  0  0
 17 19  1  0  0  0  0
 17 34  1  0  0  0  0
 18 19  1  0  0  0  0
 18 35  1  0  0  0  0
 18 36  1  0  0  0  0
 19 37  1  0  0  0  0
 19 38  1  0  0  0  0
M  CHG  1  16   1
M  END
$$$$
