SPA
 OpenBabel04041913563D

 14 14  0  0  0  0  0  0  0  0999 V2000
   10.7617   34.9537   34.3060 S   0  0  0  0  0  0  0  0  0  0  0  0
   11.8508   36.1840   33.8237 C   0  0  0  0  0  0  0  0  0  0  0  0
   11.4727   36.7468   32.6214 C   0  0  0  0  0  0  0  0  0  0  0  0
   10.2809   36.1750   32.0965 C   0  0  0  0  0  0  0  0  0  0  0  0
    9.7757   35.2002   32.9280 C   0  0  0  0  0  0  0  0  0  0  0  0
   13.0423   36.5447   34.6639 C   0  0  0  0  0  0  0  0  0  0  0  0
   12.8275   37.8174   35.5000 C   0  0  0  0  0  0  0  0  0  0  0  0
   12.1123   38.7304   35.0069 O   0  0  0  0  0  0  0  0  0  0  0  0
   13.4659   37.8232   36.5972 O   0  0  0  0  0  0  0  0  0  0  0  0
   12.0208   37.5655   32.1690 H   0  0  0  0  0  0  0  0  0  0  0  0
    9.8070   36.4881   31.1765 H   0  0  0  0  0  0  0  0  0  0  0  0
    8.8724   34.6243   32.8001 H   0  0  0  0  0  0  0  0  0  0  0  0
   13.9008   36.7264   34.0048 H   0  0  0  0  0  0  0  0  0  0  0  0
   13.3196   35.7125   35.3179 H   0  0  0  0  0  0  0  0  0  0  0  0
  1  5  1  0  0  0  0
  1  2  1  0  0  0  0
  2  6  1  0  0  0  0
  2  3  2  0  0  0  0
  3  4  1  0  0  0  0
  3 10  1  0  0  0  0
  4  5  2  0  0  0  0
  4 11  1  0  0  0  0
  5 12  1  0  0  0  0
  6  7  1  0  0  0  0
  6 13  1  0  0  0  0
  6 14  1  0  0  0  0
  7  9  2  0  0  0  0
  7  8  1  0  0  0  0
M  END
$$$$
