SPV
 OpenBabel04041915403D

 12 11  0  0  0  0  0  0  0  0999 V2000
   30.3111   69.4050   73.1315 C   0  0  0  0  0  0  0  0  0  0  0  0
   30.7615   68.4563   72.4096 O   0  0  0  0  0  0  0  0  0  0  0  0
   30.9675   70.4022   73.5689 O   0  0  0  0  0  0  0  0  0  0  0  0
   28.7981   69.4264   73.3260 C   0  0  0  0  0  0  0  0  0  0  0  0
   28.0756   68.2375   73.8200 C   0  0  0  0  0  0  0  0  0  0  0  0
   28.1993   70.4044   72.8668 O   0  0  0  0  0  0  0  0  0  0  0  0
   28.4568   67.9174   75.5332 S   0  0  0  0  0  0  0  0  0  0  0  0
   28.2623   69.1922   76.2192 O   0  0  0  0  0  0  0  0  0  0  0  0
   29.8341   67.4240   75.5212 O   0  0  0  0  0  0  0  0  0  0  0  0
   27.4777   66.8989   75.9103 O   0  0  0  0  0  0  0  0  0  0  0  0
   28.2754   67.3609   73.2060 H   0  0  0  0  0  0  0  0  0  0  0  0
   27.0056   68.4660   73.7593 H   0  0  0  0  0  0  0  0  0  0  0  0
  1  4  1  0  0  0  0
  1  3  2  0  0  0  0
  1  2  1  0  0  0  0
  4  6  2  0  0  0  0
  4  5  1  0  0  0  0
  5  7  1  0  0  0  0
  5 11  1  0  0  0  0
  5 12  1  0  0  0  0
  7 10  2  0  0  0  0
  7  9  2  0  0  0  0
  7  8  1  0  0  0  0
M  END
$$$$
