SRS
 OpenBabel04041915453D

 72 74  0  0  1  0  0  0  0  0999 V2000
   48.5416  -41.7252   50.4938 S   0  0  0  0  0  0  0  0  0  0  0  0
   47.1071  -41.5015   49.8616 N   0  0  0  0  0  0  0  0  0  0  0  0
   48.3485  -42.4772   51.8606 N   0  0  0  0  0  0  0  0  0  0  0  0
   49.4138  -40.2226   50.7909 C   0  0  0  0  0  0  0  0  0  0  0  0
   48.8728  -38.9322   50.1395 C   0  0  2  0  0  0  0  0  0  0  0  0
   49.6655  -38.5667   48.8756 C   0  0  0  0  0  0  0  0  0  0  0  0
   50.8967  -38.4564   48.8371 O   0  0  0  0  0  0  0  0  0  0  0  0
   48.9022  -38.2044   47.7849 N   0  0  0  0  0  0  0  0  0  0  0  0
   49.4989  -37.7902   46.5125 C   0  0  2  0  0  0  0  0  0  0  0  0
   49.6113  -36.2441   46.4532 C   0  0  0  0  0  0  0  0  0  0  0  0
   48.6950  -35.4794   46.7480 O   0  0  0  0  0  0  0  0  0  0  0  0
   50.8209  -35.7885   45.9335 N   0  0  0  0  0  0  0  0  0  0  0  0
   51.1167  -34.3748   45.8431 C   0  0  0  0  0  0  0  0  0  0  0  0
   52.3655  -34.0770   44.9976 C   0  0  0  0  0  0  0  0  0  0  0  0
   52.0446  -33.5127   43.6013 C   0  0  0  0  0  0  0  0  0  0  0  0
   51.6080  -34.6058   42.6222 C   0  0  0  0  0  0  0  0  0  0  0  0
   50.3069  -34.2614   41.8842 C   0  0  0  0  0  0  0  0  0  0  0  0
   49.6003  -35.4717   41.2552 C   0  0  0  0  0  0  0  0  0  0  0  0
   49.5629  -36.6440   42.1160 N   0  3  2  0  0  0  0  0  0  0  0  0
   49.0368  -37.7999   51.1835 C   0  0  0  0  0  0  0  0  0  0  0  0
   48.1745  -36.5302   51.0792 C   0  0  0  0  0  0  0  0  0  0  0  0
   46.7043  -36.7765   50.7420 C   0  0  0  0  0  0  0  0  0  0  0  0
   48.2561  -35.8074   52.4371 C   0  0  0  0  0  0  0  0  0  0  0  0
   48.6949  -38.3092   45.3057 C   0  0  0  0  0  0  0  0  0  0  0  0
   49.2080  -37.8732   43.9534 C   0  0  1  0  0  0  0  0  0  0  0  0
   48.8459  -36.7191   43.2812 C   0  0  0  0  0  0  0  0  0  0  0  0
   50.1595  -38.5460   43.1175 C   0  0  1  0  0  0  0  0  0  0  0  0
   50.3508  -37.7707   41.9697 C   0  0  2  0  0  0  0  0  0  0  0  0
   50.8857  -39.7499   43.2461 C   0  0  0  0  0  0  0  0  0  0  0  0
   51.2454  -38.1464   40.9509 C   0  0  0  0  0  0  0  0  0  0  0  0
   51.7724  -40.1337   42.2286 C   0  0  0  0  0  0  0  0  0  0  0  0
   51.9470  -39.3452   41.0992 C   0  0  0  0  0  0  0  0  0  0  0  0
   49.4961  -42.7170   49.4323 C   0  0  0  0  0  0  0  0  0  0  0  0
   46.5935  -42.3910   49.9748 H   0  0  0  0  0  0  0  0  0  0  0  0
   49.2705  -42.5579   52.3255 H   0  0  0  0  0  0  0  0  0  0  0  0
   50.4463  -40.4116   50.4866 H   0  0  0  0  0  0  0  0  0  0  0  0
   49.4211  -40.1340   51.8774 H   0  0  0  0  0  0  0  0  0  0  0  0
   47.8096  -39.0457   49.8982 H   0  0  0  0  0  0  0  0  0  0  0  0
   47.8928  -38.2411   47.8991 H   0  0  0  0  0  0  0  0  0  0  0  0
   50.5118  -38.2098   46.4614 H   0  0  0  0  0  0  0  0  0  0  0  0
   51.5947  -36.4394   46.0104 H   0  0  0  0  0  0  0  0  0  0  0  0
   51.2780  -34.0244   46.8688 H   0  0  0  0  0  0  0  0  0  0  0  0
   50.2346  -33.8514   45.4568 H   0  0  0  0  0  0  0  0  0  0  0  0
   53.0060  -34.9641   44.9061 H   0  0  0  0  0  0  0  0  0  0  0  0
   52.9577  -33.3190   45.5248 H   0  0  0  0  0  0  0  0  0  0  0  0
   52.9493  -33.0358   43.2034 H   0  0  0  0  0  0  0  0  0  0  0  0
   51.2945  -32.7185   43.6892 H   0  0  0  0  0  0  0  0  0  0  0  0
   51.5081  -35.5398   43.1757 H   0  0  0  0  0  0  0  0  0  0  0  0
   52.4022  -34.7786   41.8846 H   0  0  0  0  0  0  0  0  0  0  0  0
   50.5197  -33.5276   41.0958 H   0  0  0  0  0  0  0  0  0  0  0  0
   49.6063  -33.7768   42.5755 H   0  0  0  0  0  0  0  0  0  0  0  0
   50.0836  -35.7434   40.3116 H   0  0  0  0  0  0  0  0  0  0  0  0
   48.5614  -35.2164   41.0143 H   0  0  0  0  0  0  0  0  0  0  0  0
   50.0899  -37.4841   51.2039 H   0  0  0  0  0  0  0  0  0  0  0  0
   48.8408  -38.2213   52.1829 H   0  0  0  0  0  0  0  0  0  0  0  0
   48.5966  -35.8715   50.3109 H   0  0  0  0  0  0  0  0  0  0  0  0
   46.1399  -35.8388   50.7772 H   0  0  0  0  0  0  0  0  0  0  0  0
   46.2427  -37.4721   51.4509 H   0  0  0  0  0  0  0  0  0  0  0  0
   46.5880  -37.1809   49.7321 H   0  0  0  0  0  0  0  0  0  0  0  0
   49.2975  -35.6107   52.7097 H   0  0  0  0  0  0  0  0  0  0  0  0
   47.8219  -36.4283   53.2336 H   0  0  0  0  0  0  0  0  0  0  0  0
   47.7181  -34.8559   52.4273 H   0  0  0  0  0  0  0  0  0  0  0  0
   47.6465  -37.9935   45.3965 H   0  0  0  0  0  0  0  0  0  0  0  0
   48.6788  -39.4064   45.3399 H   0  0  0  0  0  0  0  0  0  0  0  0
   48.1835  -35.9176   43.5840 H   0  0  0  0  0  0  0  0  0  0  0  0
   50.7652  -40.3724   44.1267 H   0  0  0  0  0  0  0  0  0  0  0  0
   51.3985  -37.5341   40.0724 H   0  0  0  0  0  0  0  0  0  0  0  0
   52.3289  -41.0608   42.3383 H   0  0  0  0  0  0  0  0  0  0  0  0
   52.6433  -39.6533   40.3249 H   0  0  0  0  0  0  0  0  0  0  0  0
   48.9604  -43.6415   49.2039 H   0  0  0  0  0  0  0  0  0  0  0  0
   50.4354  -42.9522   49.9260 H   0  0  0  0  0  0  0  0  0  0  0  0
   49.6953  -42.1631   48.5102 H   0  0  0  0  0  0  0  0  0  0  0  0
  1 33  1  0  0  0  0
  1  4  1  0  0  0  0
  1  3  2  0  0  0  0
  1  2  2  0  0  0  0
  2 34  1  0  0  0  0
  3 35  1  0  0  0  0
  4  5  1  0  0  0  0
  4 36  1  0  0  0  0
  4 37  1  0  0  0  0
  5 20  1  0  0  0  0
  5  6  1  0  0  0  0
  5 38  1  6  0  0  0
  6  8  1  0  0  0  0
  6  7  2  0  0  0  0
  8  9  1  0  0  0  0
  8 39  1  0  0  0  0
  9 24  1  0  0  0  0
  9 10  1  0  0  0  0
  9 40  1  6  0  0  0
 10 12  1  0  0  0  0
 10 11  2  0  0  0  0
 12 13  1  0  0  0  0
 12 41  1  0  0  0  0
 13 14  1  0  0  0  0
 13 42  1  0  0  0  0
 13 43  1  0  0  0  0
 14 15  1  0  0  0  0
 14 44  1  0  0  0  0
 14 45  1  0  0  0  0
 15 16  1  0  0  0  0
 15 46  1  0  0  0  0
 15 47  1  0  0  0  0
 16 17  1  0  0  0  0
 16 48  1  0  0  0  0
 16 49  1  0  0  0  0
 17 18  1  0  0  0  0
 17 50  1  0  0  0  0
 17 51  1  0  0  0  0
 18 52  1  0  0  0  0
 18 53  1  0  0  0  0
 19 18  1  1  0  0  0
 19 28  1  0  0  0  0
 19 26  1  0  0  0  0
 20 21  1  0  0  0  0
 20 54  1  0  0  0  0
 20 55  1  0  0  0  0
 21 23  1  0  0  0  0
 21 22  1  0  0  0  0
 21 56  1  0  0  0  0
 22 57  1  0  0  0  0
 22 58  1  0  0  0  0
 22 59  1  0  0  0  0
 23 60  1  0  0  0  0
 23 61  1  0  0  0  0
 23 62  1  0  0  0  0
 24 25  1  0  0  0  0
 24 63  1  0  0  0  0
 24 64  1  0  0  0  0
 25 26  1  1  0  0  0
 25 27  1  0  0  0  0
 26 65  1  0  0  0  0
 27 29  1  1  0  0  0
 27 28  1  0  0  0  0
 28 30  1  1  0  0  0
 29 31  1  0  0  0  0
 29 66  1  0  0  0  0
 30 32  1  0  0  0  0
 30 67  1  0  0  0  0
 31 32  1  0  0  0  0
 31 68  1  0  0  0  0
 32 69  1  0  0  0  0
 33 70  1  0  0  0  0
 33 71  1  0  0  0  0
 33 72  1  0  0  0  0
M  CHG  1  19   1
M  END
$$$$
