T5A
 OpenBabel04041915463D

 80 84  0  0  1  0  0  0  0  0999 V2000
   24.1176    9.6434    9.2599 N   0  3  0  0  0  0  0  0  0  0  0  0
   25.4665    9.9518    9.3399 C   0  0  0  0  0  0  0  0  0  0  0  0
   23.6586    8.3537    9.5046 C   0  0  0  0  0  0  0  0  0  0  0  0
   22.4886    7.9864    9.4277 O   0  0  0  0  0  0  0  0  0  0  0  0
   24.6288    7.4528    9.8757 N   0  3  0  0  0  0  0  0  0  0  0  0
   25.9541    7.6877    9.9848 C   0  0  0  0  0  0  0  0  0  0  0  0
   26.7498    6.7880   10.3500 O   0  0  0  0  0  0  0  0  0  0  0  0
   26.4076    9.0658    9.6943 C   0  0  0  0  0  0  0  0  0  0  0  0
   27.8593    9.4098    9.7882 C   0  0  0  0  0  0  0  0  0  0  0  0
   24.2403   13.4208    6.7594 C   0  0  0  0  0  0  0  0  0  0  0  0
   23.1709   12.5039    7.3458 C   0  0  1  0  0  0  0  0  0  0  0  0
   23.6464   11.1426    7.5042 O   0  0  0  0  0  0  0  0  0  0  0  0
   23.1885   10.6791    8.7771 C   0  0  2  0  0  0  0  0  0  0  0  0
   23.0590   11.9100    9.6679 C   0  0  0  0  0  0  0  0  0  0  0  0
   22.6776   13.0043    8.6966 C   0  0  2  0  0  0  0  0  0  0  0  0
   21.2424   13.1303    8.6710 O   0  0  0  0  0  0  0  0  0  0  0  0
   25.8142   14.8314    8.3768 P   0  0  2  0  0  0  0  0  0  0  0  0
   27.3242   14.8403    8.4423 O   0  0  0  0  0  0  0  0  0  0  0  0
   25.0683   14.7534    9.7091 O   0  0  0  0  0  0  0  0  0  0  0  0
   25.3939   13.4631    7.5822 O   0  0  0  0  0  0  0  0  0  0  0  0
   25.1502   15.9870    7.5461 O   0  0  0  0  0  0  0  0  0  0  0  0
   25.4095   16.7252    6.1440 P   0  0  2  0  0  0  0  0  0  0  0  0
   24.1868   17.5948    5.9851 O   0  0  0  0  0  0  0  0  0  0  0  0
   25.6500   15.6319    5.0999 O   0  0  0  0  0  0  0  0  0  0  0  0
   26.7523   17.5017    6.5049 O   0  0  0  0  0  0  0  0  0  0  0  0
   27.3018   19.0072    6.3660 P   0  0  1  0  0  0  0  0  0  0  0  0
   27.1844   19.6543    7.7316 O   0  0  0  0  0  0  0  0  0  0  0  0
   28.6912   18.9010    5.7647 O   0  0  0  0  0  0  0  0  0  0  0  0
   26.2814   19.6329    5.3042 O   0  0  0  0  0  0  0  0  0  0  0  0
   26.3295   20.8432    4.2462 P   0  0  2  0  0  0  0  0  0  0  0  0
   26.8856   22.1102    4.8893 O   0  0  0  0  0  0  0  0  0  0  0  0
   24.9456   20.9902    3.6280 O   0  0  0  0  0  0  0  0  0  0  0  0
   27.3893   20.3779    3.1499 O   0  0  0  0  0  0  0  0  0  0  0  0
   27.4723   19.7030    1.7166 P   0  0  1  0  0  0  0  0  0  0  0  0
   26.5376   20.3027    0.6748 O   0  0  0  0  0  0  0  0  0  0  0  0
   28.9305   19.6457    1.2735 O   0  0  0  0  0  0  0  0  0  0  0  0
   27.0616   18.1613    2.0223 O   0  0  0  0  0  0  0  0  0  0  0  0
   26.0017   17.5499    1.3447 C   0  0  0  0  0  0  0  0  0  0  0  0
   26.4463   16.3462    0.5025 C   0  0  1  0  0  0  0  0  0  0  0  0
   25.2333   15.8050   -0.1103 O   0  0  0  0  0  0  0  0  0  0  0  0
   25.4016   15.7287   -1.5321 C   0  0  2  0  0  0  0  0  0  0  0  0
   26.8922   15.7336   -1.7934 C   0  0  2  0  0  0  0  0  0  0  0  0
   27.3654   14.3624   -1.7581 O   0  0  0  0  0  0  0  0  0  0  0  0
   27.4410   16.5993   -0.6501 C   0  0  2  0  0  0  0  0  0  0  0  0
   28.7828   16.1657   -0.4061 O   0  0  0  0  0  0  0  0  0  0  0  0
   24.6920   16.7925   -2.2416 N   0  3  0  0  0  0  0  0  0  0  0  0
   24.1117   16.6504   -3.4841 C   0  0  0  0  0  0  0  0  0  0  0  0
   24.0057   15.5417   -4.2366 N   0  0  0  0  0  0  0  0  0  0  0  0
   23.3495   15.7980   -5.3808 C   0  0  0  0  0  0  0  0  0  0  0  0
   22.8450   16.9649   -5.8400 N   0  0  0  0  0  0  0  0  0  0  0  0
   22.9979   18.0601   -5.0619 C   0  0  0  0  0  0  0  0  0  0  0  0
   22.5125   19.2585   -5.5662 N   0  0  0  0  0  0  0  0  0  0  0  0
   23.6573   17.9208   -3.8170 C   0  0  0  0  0  0  0  0  0  0  0  0
   23.9680   18.8222   -2.8514 N   0  0  0  0  0  0  0  0  0  0  0  0
   24.5922   18.1222   -1.9237 C   0  0  0  0  0  0  0  0  0  0  0  0
   25.7387   10.9760    9.0802 H   0  0  0  0  0  0  0  0  0  0  0  0
   24.3089    6.5120   10.0555 H   0  0  0  0  0  0  0  0  0  0  0  0
   28.0478   10.4604    9.5383 H   0  0  0  0  0  0  0  0  0  0  0  0
   28.4561    8.7974    9.1035 H   0  0  0  0  0  0  0  0  0  0  0  0
   28.2270    9.2455   10.8064 H   0  0  0  0  0  0  0  0  0  0  0  0
   23.7977   14.4077    6.6145 H   0  0  0  0  0  0  0  0  0  0  0  0
   24.5402   13.0324    5.7802 H   0  0  0  0  0  0  0  0  0  0  0  0
   22.3280   12.4334    6.6490 H   0  0  0  0  0  0  0  0  0  0  0  0
   22.1974   10.2367    8.6160 H   0  0  0  0  0  0  0  0  0  0  0  0
   24.0194   12.1528   10.1315 H   0  0  0  0  0  0  0  0  0  0  0  0
   22.3185   11.7695   10.4613 H   0  0  0  0  0  0  0  0  0  0  0  0
   23.0794   13.9796    8.9685 H   0  0  0  0  0  0  0  0  0  0  0  0
   21.0234   13.6620    9.4569 H   0  0  0  0  0  0  0  0  0  0  0  0
   25.4619   18.2550    0.7281 H   0  0  0  0  0  0  0  0  0  0  0  0
   25.2507   17.1981    2.0632 H   0  0  0  0  0  0  0  0  0  0  0  0
   26.8805   15.6070    1.1889 H   0  0  0  0  0  0  0  0  0  0  0  0
   24.9472   14.7789   -1.8435 H   0  0  0  0  0  0  0  0  0  0  0  0
   27.1501   16.1194   -2.7842 H   0  0  0  0  0  0  0  0  0  0  0  0
   28.3279   14.4019   -1.8934 H   0  0  0  0  0  0  0  0  0  0  0  0
   27.4507   17.6555   -0.9504 H   0  0  0  0  0  0  0  0  0  0  0  0
   28.7149   15.4082    0.2034 H   0  0  0  0  0  0  0  0  0  0  0  0
   23.2025   14.9527   -6.0434 H   0  0  0  0  0  0  0  0  0  0  0  0
   22.5746   20.0863   -4.9991 H   0  0  0  0  0  0  0  0  0  0  0  0
   22.0239   19.2110   -6.4376 H   0  0  0  0  0  0  0  0  0  0  0  0
   24.9980   18.5618   -1.0256 H   0  0  0  0  0  0  0  0  0  0  0  0
  1  2  1  0  0  0  0
  1  3  1  0  0  0  0
  1 13  1  0  0  0  0
  2  8  2  0  0  0  0
  2 56  1  0  0  0  0
  3  4  2  0  0  0  0
  3  5  1  0  0  0  0
  5  6  1  0  0  0  0
  5 57  1  0  0  0  0
  6  7  2  0  0  0  0
  6  8  1  0  0  0  0
  8  9  1  0  0  0  0
  9 58  1  0  0  0  0
  9 59  1  0  0  0  0
  9 60  1  0  0  0  0
 10 11  1  0  0  0  0
 10 20  1  0  0  0  0
 10 61  1  0  0  0  0
 10 62  1  0  0  0  0
 11 12  1  0  0  0  0
 11 15  1  0  0  0  0
 11 63  1  6  0  0  0
 12 13  1  0  0  0  0
 13 14  1  0  0  0  0
 13 64  1  6  0  0  0
 14 15  1  0  0  0  0
 14 65  1  0  0  0  0
 14 66  1  0  0  0  0
 15 16  1  0  0  0  0
 15 67  1  1  0  0  0
 16 68  1  0  0  0  0
 17 18  2  1  0  0  0
 17 19  1  0  0  0  0
 17 20  1  0  0  0  0
 17 21  1  0  0  0  0
 22 21  1  1  0  0  0
 22 23  2  0  0  0  0
 22 24  1  0  0  0  0
 22 25  1  0  0  0  0
 26 25  1  1  0  0  0
 26 27  2  0  0  0  0
 26 28  1  0  0  0  0
 26 29  1  0  0  0  0
 30 29  1  1  0  0  0
 30 31  2  0  0  0  0
 30 32  1  0  0  0  0
 30 33  1  0  0  0  0
 34 33  1  1  0  0  0
 34 35  2  0  0  0  0
 34 36  1  0  0  0  0
 34 37  1  0  0  0  0
 37 38  1  0  0  0  0
 38 39  1  0  0  0  0
 38 69  1  0  0  0  0
 38 70  1  0  0  0  0
 39 40  1  0  0  0  0
 39 44  1  0  0  0  0
 39 71  1  1  0  0  0
 40 41  1  0  0  0  0
 41 42  1  0  0  0  0
 41 46  1  0  0  0  0
 41 72  1  6  0  0  0
 42 43  1  0  0  0  0
 42 44  1  0  0  0  0
 42 73  1  6  0  0  0
 43 74  1  0  0  0  0
 44 45  1  0  0  0  0
 44 75  1  6  0  0  0
 45 76  1  0  0  0  0
 46 47  1  0  0  0  0
 46 55  2  0  0  0  0
 47 48  2  0  0  0  0
 47 53  1  0  0  0  0
 48 49  1  0  0  0  0
 49 50  2  0  0  0  0
 49 77  1  0  0  0  0
 50 51  1  0  0  0  0
 51 52  1  0  0  0  0
 51 53  2  0  0  0  0
 52 78  1  0  0  0  0
 52 79  1  0  0  0  0
 53 54  1  0  0  0  0
 54 55  1  0  0  0  0
 55 80  1  0  0  0  0
M  CHG  3   1   1   5   1  46   1
M  END
$$$$
