T87
 OpenBabel04041916163D

 71 75  0  0  0  0  0  0  0  0999 V2000
   -5.0370   10.1172   19.7981 N   0  0  0  0  0  0  0  0  0  0  0  0
   -3.0644   10.8558   19.0060 N   0  0  0  0  0  0  0  0  0  0  0  0
   -3.7863    9.8664   19.5129 C   0  0  0  0  0  0  0  0  0  0  0  0
   -3.1924    8.5232   19.7512 C   0  0  0  0  0  0  0  0  0  0  0  0
   -3.9156    7.4791   20.3466 C   0  0  0  0  0  0  0  0  0  0  0  0
   -3.3534    6.2016   20.5751 C   0  0  0  0  0  0  0  0  0  0  0  0
   -2.0441    5.9055   20.2049 C   0  0  0  0  0  0  0  0  0  0  0  0
   -1.3114    6.9446   19.6198 C   0  0  0  0  0  0  0  0  0  0  0  0
   -1.8621    8.2206   19.3945 C   0  0  0  0  0  0  0  0  0  0  0  0
   -1.3908    4.7184   20.4778 N   0  0  0  0  0  0  0  0  0  0  0  0
   -1.9035    3.6223   21.2936 C   0  0  0  0  0  0  0  0  0  0  0  0
   -3.2092    4.2624   23.3085 N   0  0  0  0  0  0  0  0  0  0  0  0
   -2.0559    3.9428   22.7452 C   0  0  0  0  0  0  0  0  0  0  0  0
   -1.0276    3.9699   23.6621 N   0  3  0  0  0  0  0  0  0  0  0  0
   -1.5757    4.3381   24.8740 C   0  0  0  0  0  0  0  0  0  0  0  0
   -2.9316    4.5077   24.6198 C   0  0  0  0  0  0  0  0  0  0  0  0
   -1.0361    4.5350   26.1370 C   0  0  0  0  0  0  0  0  0  0  0  0
   -1.9357    4.9002   27.1504 C   0  0  0  0  0  0  0  0  0  0  0  0
   -3.3181    5.1109   26.9530 C   0  0  0  0  0  0  0  0  0  0  0  0
   -3.8072    4.8947   25.6493 C   0  0  0  0  0  0  0  0  0  0  0  0
    0.3767    3.6784   23.4497 C   0  0  0  0  0  0  0  0  0  0  0  0
   -5.7377    5.6127   28.0644 C   0  0  0  0  0  0  0  0  0  0  0  0
   -4.9950    6.8761   27.7975 C   0  0  0  0  0  0  0  0  0  0  0  0
   -4.1989    5.5989   28.1283 C   0  0  0  0  0  0  0  0  0  0  0  0
   -3.6635    5.2626   29.5324 C   0  0  0  0  0  0  0  0  0  0  0  0
   -3.8257    4.0483   30.0163 N   0  0  0  0  0  0  0  0  0  0  0  0
   -2.8683    6.2696   31.6542 N   0  0  0  0  0  0  0  0  0  0  0  0
   -2.8642    6.3291   30.2868 C   0  0  0  0  0  0  0  0  0  0  0  0
   -2.0832    7.2739   29.6044 C   0  0  0  0  0  0  0  0  0  0  0  0
   -1.2928    8.1797   30.3167 C   0  0  0  0  0  0  0  0  0  0  0  0
   -1.3100    8.1475   31.7058 C   0  0  0  0  0  0  0  0  0  0  0  0
   -2.1002    7.1850   32.3187 C   0  0  0  0  0  0  0  0  0  0  0  0
   -4.5069    3.1652   29.1163 O   0  0  0  0  0  0  0  0  0  0  0  0
   -4.5884    1.8546   29.6778 C   0  0  0  0  0  0  0  0  0  0  0  0
   -5.3921    0.7990   28.8989 C   0  0  0  0  0  0  0  0  0  0  0  0
   -6.0052   -0.1071   29.4611 O   0  0  0  0  0  0  0  0  0  0  0  0
   -5.3085    0.9124   27.5377 O   0  0  0  0  0  0  0  0  0  0  0  0
   -6.2588    0.2932   25.3778 C   0  0  0  0  0  0  0  0  0  0  0  0
   -6.0584   -0.0998   26.8319 C   0  0  0  0  0  0  0  0  0  0  0  0
   -5.4539   11.0242   19.6408 H   0  0  0  0  0  0  0  0  0  0  0  0
   -2.0898   10.7413   18.7504 H   0  0  0  0  0  0  0  0  0  0  0  0
   -3.4671   11.7615   18.8197 H   0  0  0  0  0  0  0  0  0  0  0  0
   -4.9453    7.6031   20.6636 H   0  0  0  0  0  0  0  0  0  0  0  0
   -3.9806    5.4481   21.0517 H   0  0  0  0  0  0  0  0  0  0  0  0
   -0.2684    6.7696   19.3583 H   0  0  0  0  0  0  0  0  0  0  0  0
   -1.1911    8.9533   18.9593 H   0  0  0  0  0  0  0  0  0  0  0  0
   -0.6137    4.4774   19.8755 H   0  0  0  0  0  0  0  0  0  0  0  0
   -1.2216    2.7688   21.1948 H   0  0  0  0  0  0  0  0  0  0  0  0
   -2.8656    3.2649   20.9066 H   0  0  0  0  0  0  0  0  0  0  0  0
    0.0187    4.4022   26.3559 H   0  0  0  0  0  0  0  0  0  0  0  0
   -1.5015    5.0382   28.1347 H   0  0  0  0  0  0  0  0  0  0  0  0
   -4.8581    5.0309   25.4109 H   0  0  0  0  0  0  0  0  0  0  0  0
    0.5617    3.4026   22.4148 H   0  0  0  0  0  0  0  0  0  0  0  0
    0.6652    2.8448   24.1027 H   0  0  0  0  0  0  0  0  0  0  0  0
    0.9685    4.5623   23.7038 H   0  0  0  0  0  0  0  0  0  0  0  0
   -6.2315    5.0713   27.2677 H   0  0  0  0  0  0  0  0  0  0  0  0
   -6.2969    5.5617   28.9971 H   0  0  0  0  0  0  0  0  0  0  0  0
   -5.0641    7.6866   28.5104 H   0  0  0  0  0  0  0  0  0  0  0  0
   -5.0198    7.2319   26.7683 H   0  0  0  0  0  0  0  0  0  0  0  0
   -2.0301    7.2937   28.5234 H   0  0  0  0  0  0  0  0  0  0  0  0
   -0.6665    8.8983   29.7964 H   0  0  0  0  0  0  0  0  0  0  0  0
   -0.7240    8.8455   32.2972 H   0  0  0  0  0  0  0  0  0  0  0  0
   -2.1359    7.1300   33.4022 H   0  0  0  0  0  0  0  0  0  0  0  0
   -5.0780    1.9297   30.6575 H   0  0  0  0  0  0  0  0  0  0  0  0
   -3.5810    1.4474   29.8267 H   0  0  0  0  0  0  0  0  0  0  0  0
   -6.8494   -0.4666   24.8528 H   0  0  0  0  0  0  0  0  0  0  0  0
   -5.3010    0.4051   24.8614 H   0  0  0  0  0  0  0  0  0  0  0  0
   -6.7856    1.2495   25.3045 H   0  0  0  0  0  0  0  0  0  0  0  0
   -7.0474   -0.2280   27.2876 H   0  0  0  0  0  0  0  0  0  0  0  0
   -5.5160   -1.0521   26.8785 H   0  0  0  0  0  0  0  0  0  0  0  0
   -5.6430    9.4098   20.1899 H   0  0  0  0  0  0  0  0  0  0  0  0
  1  3  2  0  0  0  0
  1 40  1  0  0  0  0
  1 71  1  0  0  0  0
  2  3  1  0  0  0  0
  2 41  1  0  0  0  0
  2 42  1  0  0  0  0
  3  4  1  0  0  0  0
  4  5  2  0  0  0  0
  4  9  1  0  0  0  0
  5  6  1  0  0  0  0
  5 43  1  0  0  0  0
  6  7  2  0  0  0  0
  6 44  1  0  0  0  0
  7  8  1  0  0  0  0
  7 10  1  0  0  0  0
  8  9  2  0  0  0  0
  8 45  1  0  0  0  0
  9 46  1  0  0  0  0
 10 11  1  0  0  0  0
 10 47  1  0  0  0  0
 11 13  1  0  0  0  0
 11 48  1  0  0  0  0
 11 49  1  0  0  0  0
 12 16  1  0  0  0  0
 12 13  1  0  0  0  0
 13 14  2  0  0  0  0
 14 15  1  0  0  0  0
 14 21  1  0  0  0  0
 15 16  2  0  0  0  0
 15 17  1  0  0  0  0
 16 20  1  0  0  0  0
 17 18  2  0  0  0  0
 17 50  1  0  0  0  0
 18 19  1  0  0  0  0
 18 51  1  0  0  0  0
 19 20  2  0  0  0  0
 19 24  1  0  0  0  0
 20 52  1  0  0  0  0
 21 53  1  0  0  0  0
 21 54  1  0  0  0  0
 21 55  1  0  0  0  0
 22 23  1  0  0  0  0
 22 24  1  0  0  0  0
 22 56  1  0  0  0  0
 22 57  1  0  0  0  0
 23 24  1  0  0  0  0
 23 58  1  0  0  0  0
 23 59  1  0  0  0  0
 24 25  1  0  0  0  0
 25 26  2  0  0  0  0
 25 28  1  0  0  0  0
 26 33  1  0  0  0  0
 27 32  2  0  0  0  0
 27 28  1  0  0  0  0
 28 29  2  0  0  0  0
 29 30  1  0  0  0  0
 29 60  1  0  0  0  0
 30 31  2  0  0  0  0
 30 61  1  0  0  0  0
 31 32  1  0  0  0  0
 31 62  1  0  0  0  0
 32 63  1  0  0  0  0
 33 34  1  0  0  0  0
 34 35  1  0  0  0  0
 34 64  1  0  0  0  0
 34 65  1  0  0  0  0
 35 36  2  0  0  0  0
 35 37  1  0  0  0  0
 37 39  1  0  0  0  0
 38 39  1  0  0  0  0
 38 66  1  0  0  0  0
 38 67  1  0  0  0  0
 38 68  1  0  0  0  0
 39 69  1  0  0  0  0
 39 70  1  0  0  0  0
M  CHG  1  14   1
M  END
$$$$
