T87
 OpenBabel04041914433D

 71 75  0  0  0  0  0  0  0  0999 V2000
    9.7659    6.1978   27.8653 N   0  0  0  0  0  0  0  0  0  0  0  0
   11.8212    6.9456   27.5435 N   0  0  0  0  0  0  0  0  0  0  0  0
   10.5560    6.9364   27.1481 C   0  0  0  0  0  0  0  0  0  0  0  0
   10.0487    7.7090   25.9561 C   0  0  0  0  0  0  0  0  0  0  0  0
    8.6738    7.7070   25.6304 C   0  0  0  0  0  0  0  0  0  0  0  0
    8.1557    8.4388   24.5283 C   0  0  0  0  0  0  0  0  0  0  0  0
    8.9789    9.2184   23.7052 C   0  0  0  0  0  0  0  0  0  0  0  0
   10.3591    9.1886   24.0085 C   0  0  0  0  0  0  0  0  0  0  0  0
   10.8880    8.4431   25.1016 C   0  0  0  0  0  0  0  0  0  0  0  0
    8.5448    9.9415   22.6014 N   0  0  0  0  0  0  0  0  0  0  0  0
    7.3453    9.7373   21.7659 C   0  0  0  0  0  0  0  0  0  0  0  0
    6.6081    7.3801   21.4936 N   0  0  0  0  0  0  0  0  0  0  0  0
    7.2812    8.4257   21.0278 C   0  0  0  0  0  0  0  0  0  0  0  0
    7.8972    8.1327   19.8112 N   0  3  0  0  0  0  0  0  0  0  0  0
    7.6049    6.7900   19.5555 C   0  0  0  0  0  0  0  0  0  0  0  0
    6.8043    6.3477   20.6128 C   0  0  0  0  0  0  0  0  0  0  0  0
    7.9474    5.9148   18.5269 C   0  0  0  0  0  0  0  0  0  0  0  0
    7.4780    4.5806   18.5998 C   0  0  0  0  0  0  0  0  0  0  0  0
    6.6858    4.0589   19.6494 C   0  0  0  0  0  0  0  0  0  0  0  0
    6.3336    4.9964   20.6630 C   0  0  0  0  0  0  0  0  0  0  0  0
    8.7094    9.0176   18.9722 C   0  0  0  0  0  0  0  0  0  0  0  0
    5.1403    1.9577   20.5291 C   0  0  0  0  0  0  0  0  0  0  0  0
    6.5376    1.7923   21.0153 C   0  0  0  0  0  0  0  0  0  0  0  0
    6.2912    2.5098   19.6452 C   0  0  0  0  0  0  0  0  0  0  0  0
    6.2743    1.8288   18.2153 C   0  0  0  0  0  0  0  0  0  0  0  0
    5.2347    1.9920   17.4203 N   0  0  0  0  0  0  0  0  0  0  0  0
    7.3764    0.4218   16.4117 N   0  0  0  0  0  0  0  0  0  0  0  0
    7.5400    1.0709   17.6227 C   0  0  0  0  0  0  0  0  0  0  0  0
    8.7960    1.0932   18.2276 C   0  0  0  0  0  0  0  0  0  0  0  0
    9.8800    0.4285   17.6055 C   0  0  0  0  0  0  0  0  0  0  0  0
    9.7097   -0.2451   16.3948 C   0  0  0  0  0  0  0  0  0  0  0  0
    8.4458   -0.2207   15.8330 C   0  0  0  0  0  0  0  0  0  0  0  0
    4.1318    2.7536   17.9154 O   0  0  0  0  0  0  0  0  0  0  0  0
    3.4184    3.3252   16.7999 C   0  0  0  0  0  0  0  0  0  0  0  0
    4.0177    4.6681   16.3774 C   0  0  0  0  0  0  0  0  0  0  0  0
    4.4669    4.8570   15.2233 O   0  0  0  0  0  0  0  0  0  0  0  0
    3.9862    5.6431   17.3449 O   0  0  0  0  0  0  0  0  0  0  0  0
    4.3239    8.0017   17.9233 C   0  0  0  0  0  0  0  0  0  0  0  0
    4.5969    6.8885   16.9219 C   0  0  0  0  0  0  0  0  0  0  0  0
   10.1237    5.6907   28.6818 H   0  0  0  0  0  0  0  0  0  0  0  0
   12.4907    7.5019   27.0413 H   0  0  0  0  0  0  0  0  0  0  0  0
   12.1351    6.4534   28.3413 H   0  0  0  0  0  0  0  0  0  0  0  0
    7.9544    7.1525   26.2382 H   0  0  0  0  0  0  0  0  0  0  0  0
    7.0777    8.4101   24.3626 H   0  0  0  0  0  0  0  0  0  0  0  0
   11.0557    9.7503   23.3778 H   0  0  0  0  0  0  0  0  0  0  0  0
   11.9661    8.4783   25.2569 H   0  0  0  0  0  0  0  0  0  0  0  0
    9.0736   10.7729   22.3647 H   0  0  0  0  0  0  0  0  0  0  0  0
    7.2791   10.5441   21.0169 H   0  0  0  0  0  0  0  0  0  0  0  0
    6.4299    9.8494   22.3655 H   0  0  0  0  0  0  0  0  0  0  0  0
    8.5572    6.2344   17.6900 H   0  0  0  0  0  0  0  0  0  0  0  0
    7.7559    3.9289   17.7708 H   0  0  0  0  0  0  0  0  0  0  0  0
    5.7041    4.6784   21.4973 H   0  0  0  0  0  0  0  0  0  0  0  0
    8.7853   10.0271   19.3928 H   0  0  0  0  0  0  0  0  0  0  0  0
    8.2787    9.1127   17.9663 H   0  0  0  0  0  0  0  0  0  0  0  0
    9.7299    8.6283   18.8660 H   0  0  0  0  0  0  0  0  0  0  0  0
    4.4490    2.6600   20.9789 H   0  0  0  0  0  0  0  0  0  0  0  0
    4.6137    1.0676   20.1787 H   0  0  0  0  0  0  0  0  0  0  0  0
    6.9538    0.7924   21.0956 H   0  0  0  0  0  0  0  0  0  0  0  0
    6.8018    2.3717   21.9063 H   0  0  0  0  0  0  0  0  0  0  0  0
    8.9694    1.6197   19.1594 H   0  0  0  0  0  0  0  0  0  0  0  0
   10.8669    0.4325   18.0693 H   0  0  0  0  0  0  0  0  0  0  0  0
   10.5365   -0.7685   15.9125 H   0  0  0  0  0  0  0  0  0  0  0  0
    8.2671   -0.7369   14.8808 H   0  0  0  0  0  0  0  0  0  0  0  0
    2.3403    3.4556   17.0048 H   0  0  0  0  0  0  0  0  0  0  0  0
    3.4550    2.6482   15.9288 H   0  0  0  0  0  0  0  0  0  0  0  0
    4.7892    8.9445   17.6081 H   0  0  0  0  0  0  0  0  0  0  0  0
    4.7126    7.7448   18.9113 H   0  0  0  0  0  0  0  0  0  0  0  0
    3.2485    8.1706   18.0300 H   0  0  0  0  0  0  0  0  0  0  0  0
    4.2031    7.1984   15.9456 H   0  0  0  0  0  0  0  0  0  0  0  0
    5.6812    6.7510   16.8321 H   0  0  0  0  0  0  0  0  0  0  0  0
    8.7961    6.0506   27.6344 H   0  0  0  0  0  0  0  0  0  0  0  0
  1  3  2  0  0  0  0
  1 40  1  0  0  0  0
  1 71  1  0  0  0  0
  2  3  1  0  0  0  0
  2 41  1  0  0  0  0
  2 42  1  0  0  0  0
  3  4  1  0  0  0  0
  4  5  2  0  0  0  0
  4  9  1  0  0  0  0
  5  6  1  0  0  0  0
  5 43  1  0  0  0  0
  6  7  2  0  0  0  0
  6 44  1  0  0  0  0
  7  8  1  0  0  0  0
  7 10  1  0  0  0  0
  8  9  2  0  0  0  0
  8 45  1  0  0  0  0
  9 46  1  0  0  0  0
 10 11  1  0  0  0  0
 10 47  1  0  0  0  0
 11 13  1  0  0  0  0
 11 48  1  0  0  0  0
 11 49  1  0  0  0  0
 12 16  1  0  0  0  0
 12 13  1  0  0  0  0
 13 14  2  0  0  0  0
 14 15  1  0  0  0  0
 14 21  1  0  0  0  0
 15 16  2  0  0  0  0
 15 17  1  0  0  0  0
 16 20  1  0  0  0  0
 17 18  2  0  0  0  0
 17 50  1  0  0  0  0
 18 19  1  0  0  0  0
 18 51  1  0  0  0  0
 19 20  2  0  0  0  0
 19 24  1  0  0  0  0
 20 52  1  0  0  0  0
 21 53  1  0  0  0  0
 21 54  1  0  0  0  0
 21 55  1  0  0  0  0
 22 23  1  0  0  0  0
 22 24  1  0  0  0  0
 22 56  1  0  0  0  0
 22 57  1  0  0  0  0
 23 24  1  0  0  0  0
 23 58  1  0  0  0  0
 23 59  1  0  0  0  0
 24 25  1  0  0  0  0
 25 26  2  0  0  0  0
 25 28  1  0  0  0  0
 26 33  1  0  0  0  0
 27 32  2  0  0  0  0
 27 28  1  0  0  0  0
 28 29  2  0  0  0  0
 29 30  1  0  0  0  0
 29 60  1  0  0  0  0
 30 31  2  0  0  0  0
 30 61  1  0  0  0  0
 31 32  1  0  0  0  0
 31 62  1  0  0  0  0
 32 63  1  0  0  0  0
 33 34  1  0  0  0  0
 34 35  1  0  0  0  0
 34 64  1  0  0  0  0
 34 65  1  0  0  0  0
 35 36  2  0  0  0  0
 35 37  1  0  0  0  0
 37 39  1  0  0  0  0
 38 39  1  0  0  0  0
 38 66  1  0  0  0  0
 38 67  1  0  0  0  0
 38 68  1  0  0  0  0
 39 69  1  0  0  0  0
 39 70  1  0  0  0  0
M  CHG  1  14   1
M  END
$$$$
