T87
 OpenBabel04041914433D

 71 75  0  0  0  0  0  0  0  0999 V2000
   10.2968  -12.7303   23.9044 N   0  0  0  0  0  0  0  0  0  0  0  0
   10.8739  -10.6201   24.4834 N   0  0  0  0  0  0  0  0  0  0  0  0
   11.0636  -11.6811   23.7080 C   0  0  0  0  0  0  0  0  0  0  0  0
   12.1165  -11.6755   22.6498 C   0  0  0  0  0  0  0  0  0  0  0  0
   12.1434  -12.6317   21.6209 C   0  0  0  0  0  0  0  0  0  0  0  0
   13.1366  -12.6173   20.6214 C   0  0  0  0  0  0  0  0  0  0  0  0
   14.1441  -11.6421   20.5972 C   0  0  0  0  0  0  0  0  0  0  0  0
   14.1360  -10.7130   21.6322 C   0  0  0  0  0  0  0  0  0  0  0  0
   13.1406  -10.7126   22.6271 C   0  0  0  0  0  0  0  0  0  0  0  0
   15.0876  -11.6300   19.5881 N   0  0  0  0  0  0  0  0  0  0  0  0
   16.5227  -11.3730   19.8029 C   0  0  0  0  0  0  0  0  0  0  0  0
   16.7882  -13.2520   21.4580 N   0  0  0  0  0  0  0  0  0  0  0  0
   17.3117  -12.3601   20.6351 C   0  0  0  0  0  0  0  0  0  0  0  0
   18.6986  -12.4458   20.6629 N   0  3  0  0  0  0  0  0  0  0  0  0
   19.0469  -13.4490   21.5422 C   0  0  0  0  0  0  0  0  0  0  0  0
   17.8358  -13.9332   22.0148 C   0  0  0  0  0  0  0  0  0  0  0  0
   20.2656  -13.9772   21.9660 C   0  0  0  0  0  0  0  0  0  0  0  0
   20.2122  -15.0060   22.9223 C   0  0  0  0  0  0  0  0  0  0  0  0
   19.0147  -15.4949   23.4944 C   0  0  0  0  0  0  0  0  0  0  0  0
   17.8185  -14.9622   22.9704 C   0  0  0  0  0  0  0  0  0  0  0  0
   19.6653  -11.6665   19.9233 C   0  0  0  0  0  0  0  0  0  0  0  0
   18.0890  -17.6131   24.9203 C   0  0  0  0  0  0  0  0  0  0  0  0
   17.8427  -16.3597   25.6776 C   0  0  0  0  0  0  0  0  0  0  0  0
   19.0663  -16.4452   24.7326 C   0  0  0  0  0  0  0  0  0  0  0  0
   20.4615  -16.6636   25.3308 C   0  0  0  0  0  0  0  0  0  0  0  0
   21.1546  -17.7372   25.0441 N   0  0  0  0  0  0  0  0  0  0  0  0
   22.3146  -15.7712   26.6609 N   0  0  0  0  0  0  0  0  0  0  0  0
   21.0593  -15.5544   26.1800 C   0  0  0  0  0  0  0  0  0  0  0  0
   20.4025  -14.3427   26.3832 C   0  0  0  0  0  0  0  0  0  0  0  0
   21.0296  -13.3328   27.1139 C   0  0  0  0  0  0  0  0  0  0  0  0
   22.3047  -13.5485   27.6163 C   0  0  0  0  0  0  0  0  0  0  0  0
   22.9015  -14.7697   27.3598 C   0  0  0  0  0  0  0  0  0  0  0  0
   20.5136  -18.5972   24.1140 O   0  0  0  0  0  0  0  0  0  0  0  0
   21.0824  -19.8939   24.2253 C   0  0  0  0  0  0  0  0  0  0  0  0
   20.4686  -21.0228   23.3975 C   0  0  0  0  0  0  0  0  0  0  0  0
   20.6773  -22.2075   23.6561 O   0  0  0  0  0  0  0  0  0  0  0  0
   19.7106  -20.6052   22.3405 O   0  0  0  0  0  0  0  0  0  0  0  0
   18.1698  -21.1834   20.5497 C   0  0  0  0  0  0  0  0  0  0  0  0
   19.1724  -21.6957   21.5677 C   0  0  0  0  0  0  0  0  0  0  0  0
    9.5770  -12.7543   24.6243 H   0  0  0  0  0  0  0  0  0  0  0  0
   11.4086   -9.7743   24.3491 H   0  0  0  0  0  0  0  0  0  0  0  0
   10.1805  -10.6017   25.2120 H   0  0  0  0  0  0  0  0  0  0  0  0
   11.3978  -13.4189   21.5447 H   0  0  0  0  0  0  0  0  0  0  0  0
   13.1257  -13.4007   19.8630 H   0  0  0  0  0  0  0  0  0  0  0  0
   14.8963   -9.9351   21.6557 H   0  0  0  0  0  0  0  0  0  0  0  0
   13.2128   -9.9300   23.3760 H   0  0  0  0  0  0  0  0  0  0  0  0
   14.8747  -12.1599   18.7537 H   0  0  0  0  0  0  0  0  0  0  0  0
   16.6576  -10.3690   20.2202 H   0  0  0  0  0  0  0  0  0  0  0  0
   16.9753  -11.3504   18.8030 H   0  0  0  0  0  0  0  0  0  0  0  0
   21.2215  -13.6120   21.6081 H   0  0  0  0  0  0  0  0  0  0  0  0
   21.1703  -15.4074   23.2535 H   0  0  0  0  0  0  0  0  0  0  0  0
   16.8472  -15.2922   23.3186 H   0  0  0  0  0  0  0  0  0  0  0  0
   19.1688  -10.9370   19.2834 H   0  0  0  0  0  0  0  0  0  0  0  0
   20.2631  -12.3476   19.3095 H   0  0  0  0  0  0  0  0  0  0  0  0
   20.3142  -11.1454   20.6343 H   0  0  0  0  0  0  0  0  0  0  0  0
   17.4689  -17.8940   24.0790 H   0  0  0  0  0  0  0  0  0  0  0  0
   18.3984  -18.4681   25.5196 H   0  0  0  0  0  0  0  0  0  0  0  0
   17.9942  -16.3694   26.7536 H   0  0  0  0  0  0  0  0  0  0  0  0
   16.9459  -15.8204   25.4009 H   0  0  0  0  0  0  0  0  0  0  0  0
   19.4227  -14.1460   25.9661 H   0  0  0  0  0  0  0  0  0  0  0  0
   20.5277  -12.3831   27.2770 H   0  0  0  0  0  0  0  0  0  0  0  0
   22.8189  -12.7808   28.1888 H   0  0  0  0  0  0  0  0  0  0  0  0
   23.9055  -14.9843   27.7204 H   0  0  0  0  0  0  0  0  0  0  0  0
   20.9806  -20.2094   25.2712 H   0  0  0  0  0  0  0  0  0  0  0  0
   22.1457  -19.8455   23.9660 H   0  0  0  0  0  0  0  0  0  0  0  0
   17.7462  -22.0180   19.9771 H   0  0  0  0  0  0  0  0  0  0  0  0
   18.6383  -20.4864   19.8493 H   0  0  0  0  0  0  0  0  0  0  0  0
   17.3506  -20.6520   21.0429 H   0  0  0  0  0  0  0  0  0  0  0  0
   18.6633  -22.4074   22.2286 H   0  0  0  0  0  0  0  0  0  0  0  0
   19.9894  -22.2075   21.0454 H   0  0  0  0  0  0  0  0  0  0  0  0
   10.4129  -13.5774   23.3686 H   0  0  0  0  0  0  0  0  0  0  0  0
  1  3  2  0  0  0  0
  1 40  1  0  0  0  0
  1 71  1  0  0  0  0
  2  3  1  0  0  0  0
  2 41  1  0  0  0  0
  2 42  1  0  0  0  0
  3  4  1  0  0  0  0
  4  5  2  0  0  0  0
  4  9  1  0  0  0  0
  5  6  1  0  0  0  0
  5 43  1  0  0  0  0
  6  7  2  0  0  0  0
  6 44  1  0  0  0  0
  7  8  1  0  0  0  0
  7 10  1  0  0  0  0
  8  9  2  0  0  0  0
  8 45  1  0  0  0  0
  9 46  1  0  0  0  0
 10 11  1  0  0  0  0
 10 47  1  0  0  0  0
 11 13  1  0  0  0  0
 11 48  1  0  0  0  0
 11 49  1  0  0  0  0
 12 16  1  0  0  0  0
 12 13  1  0  0  0  0
 13 14  2  0  0  0  0
 14 15  1  0  0  0  0
 14 21  1  0  0  0  0
 15 16  2  0  0  0  0
 15 17  1  0  0  0  0
 16 20  1  0  0  0  0
 17 18  2  0  0  0  0
 17 50  1  0  0  0  0
 18 19  1  0  0  0  0
 18 51  1  0  0  0  0
 19 20  2  0  0  0  0
 19 24  1  0  0  0  0
 20 52  1  0  0  0  0
 21 53  1  0  0  0  0
 21 54  1  0  0  0  0
 21 55  1  0  0  0  0
 22 23  1  0  0  0  0
 22 24  1  0  0  0  0
 22 56  1  0  0  0  0
 22 57  1  0  0  0  0
 23 24  1  0  0  0  0
 23 58  1  0  0  0  0
 23 59  1  0  0  0  0
 24 25  1  0  0  0  0
 25 26  2  0  0  0  0
 25 28  1  0  0  0  0
 26 33  1  0  0  0  0
 27 32  2  0  0  0  0
 27 28  1  0  0  0  0
 28 29  2  0  0  0  0
 29 30  1  0  0  0  0
 29 60  1  0  0  0  0
 30 31  2  0  0  0  0
 30 61  1  0  0  0  0
 31 32  1  0  0  0  0
 31 62  1  0  0  0  0
 32 63  1  0  0  0  0
 33 34  1  0  0  0  0
 34 35  1  0  0  0  0
 34 64  1  0  0  0  0
 34 65  1  0  0  0  0
 35 36  2  0  0  0  0
 35 37  1  0  0  0  0
 37 39  1  0  0  0  0
 38 39  1  0  0  0  0
 38 66  1  0  0  0  0
 38 67  1  0  0  0  0
 38 68  1  0  0  0  0
 39 69  1  0  0  0  0
 39 70  1  0  0  0  0
M  CHG  1  14   1
M  END
$$$$
