TDI
 OpenBabel04041917453D

 40 42  0  0  1  0  0  0  0  0999 V2000
   53.8618   75.0923   20.9560 C   0  0  0  0  0  0  0  0  0  0  0  0
   55.6765   74.3481   19.8270 C   0  0  0  0  0  0  0  0  0  0  0  0
   54.8613   74.0665   18.7223 C   0  0  0  0  0  0  0  0  0  0  0  0
   53.5014   74.3382   18.7846 C   0  0  0  0  0  0  0  0  0  0  0  0
   56.5922   68.1165   23.2829 C   0  0  0  0  0  0  0  0  0  0  0  0
   55.9564   69.7722   23.5869 S   0  0  0  0  0  0  0  0  0  0  0  0
   56.8076   70.5698   22.2038 C   0  0  0  0  0  0  0  0  0  0  0  0
   58.1473   71.2594   22.4327 C   0  0  1  0  0  0  0  0  0  0  0  0
   58.5460   71.9505   21.1243 C   0  0  0  0  0  0  0  0  0  0  0  0
   58.6456   73.4156   21.4158 N   0  3  1  0  0  0  0  0  0  0  0  0
   58.2878   74.2781   20.2482 C   0  0  0  0  0  0  0  0  0  0  0  0
   57.0208   74.0273   19.4791 C   0  0  0  0  0  0  0  0  0  0  0  0
   56.9538   73.5042   18.1947 C   0  0  0  0  0  0  0  0  0  0  0  0
   55.6504   73.5702   17.7663 N   0  3  0  0  0  0  0  0  0  0  0  0
   52.6730   74.1180   17.7194 N   0  0  0  0  0  0  0  0  0  0  0  0
   53.0167   74.8660   19.9320 N   0  0  0  0  0  0  0  0  0  0  0  0
   55.1906   74.8821   20.9860 N   0  0  0  0  0  0  0  0  0  0  0  0
   57.8380   73.6548   22.6634 C   0  0  0  0  0  0  0  0  0  0  0  0
   58.0225   72.3684   23.4582 C   0  0  2  0  0  0  0  0  0  0  0  0
   59.2679   72.3820   24.1471 O   0  0  0  0  0  0  0  0  0  0  0  0
   53.4225   75.5083   21.8627 H   0  0  0  0  0  0  0  0  0  0  0  0
   56.0440   67.3572   23.8413 H   0  0  0  0  0  0  0  0  0  0  0  0
   57.6395   68.1312   23.5818 H   0  0  0  0  0  0  0  0  0  0  0  0
   56.5168   67.8785   22.2174 H   0  0  0  0  0  0  0  0  0  0  0  0
   56.0974   71.3111   21.8364 H   0  0  0  0  0  0  0  0  0  0  0  0
   56.9679   69.8155   21.4337 H   0  0  0  0  0  0  0  0  0  0  0  0
   58.9408   70.5426   22.6908 H   0  0  0  0  0  0  0  0  0  0  0  0
   57.7629   71.8227   20.3762 H   0  0  0  0  0  0  0  0  0  0  0  0
   59.4942   71.6230   20.6857 H   0  0  0  0  0  0  0  0  0  0  0  0
   59.1237   74.1218   19.5549 H   0  0  0  0  0  0  0  0  0  0  0  0
   58.3211   75.3130   20.5990 H   0  0  0  0  0  0  0  0  0  0  0  0
   57.7281   73.1588   17.5192 H   0  0  0  0  0  0  0  0  0  0  0  0
   55.3289   73.3195   16.8312 H   0  0  0  0  0  0  0  0  0  0  0  0
   51.6922   74.3547   17.8548 H   0  0  0  0  0  0  0  0  0  0  0  0
   52.9671   73.7555   16.8300 H   0  0  0  0  0  0  0  0  0  0  0  0
   56.8083   73.8036   22.3594 H   0  0  0  0  0  0  0  0  0  0  0  0
   58.2350   74.5326   23.1836 H   0  0  0  0  0  0  0  0  0  0  0  0
   57.1960   72.2297   24.1613 H   0  0  0  0  0  0  0  0  0  0  0  0
   59.2109   73.0150   24.8831 H   0  0  0  0  0  0  0  0  0  0  0  0
   59.6278   73.6064   21.6906 H   0  0  0  0  0  0  0  0  0  0  0  0
  1 16  1  0  0  0  0
  1 17  2  0  0  0  0
  1 21  1  0  0  0  0
  2  3  1  0  0  0  0
  2 12  2  0  0  0  0
  2 17  1  0  0  0  0
  3  4  2  0  0  0  0
  3 14  1  0  0  0  0
  4 15  1  0  0  0  0
  4 16  1  0  0  0  0
  5  6  1  0  0  0  0
  5 22  1  0  0  0  0
  5 23  1  0  0  0  0
  5 24  1  0  0  0  0
  6  7  1  0  0  0  0
  7  8  1  0  0  0  0
  7 25  1  0  0  0  0
  7 26  1  0  0  0  0
  8  9  1  0  0  0  0
  8 19  1  0  0  0  0
  8 27  1  1  0  0  0
  9 10  1  0  0  0  0
  9 28  1  0  0  0  0
  9 29  1  0  0  0  0
 10 11  1  0  0  0  0
 10 18  1  0  0  0  0
 10 40  1  1  0  0  0
 11 12  1  0  0  0  0
 11 30  1  0  0  0  0
 11 31  1  0  0  0  0
 12 13  1  0  0  0  0
 13 14  2  0  0  0  0
 13 32  1  0  0  0  0
 14 33  1  0  0  0  0
 15 34  1  0  0  0  0
 15 35  1  0  0  0  0
 18 19  1  0  0  0  0
 18 36  1  0  0  0  0
 18 37  1  0  0  0  0
 19 20  1  0  0  0  0
 19 38  1  1  0  0  0
 20 39  1  0  0  0  0
M  CHG  2  10   1  14   1
M  END
$$$$
