TDP
 OpenBabel04041917173D

 42 43  0  0  0  0  0  0  0  0999 V2000
   77.0604    0.5859   11.2055 N   0  0  0  0  0  0  0  0  0  0  0  0
   77.2735    1.8145   11.6982 C   0  0  0  0  0  0  0  0  0  0  0  0
   77.4229    1.9524   13.1928 C   0  0  0  0  0  0  0  0  0  0  0  0
   77.4013    2.9128   10.9595 N   0  0  0  0  0  0  0  0  0  0  0  0
   77.2704    2.8094    9.6266 C   0  0  0  0  0  0  0  0  0  0  0  0
   77.5543    3.9630    8.9443 N   0  0  0  0  0  0  0  0  0  0  0  0
   77.0086    1.5944    9.0083 C   0  0  0  0  0  0  0  0  0  0  0  0
   76.9267    0.5150    9.8697 C   0  0  0  0  0  0  0  0  0  0  0  0
   76.8427    1.4155    7.5342 C   0  0  0  0  0  0  0  0  0  0  0  0
   75.5843    1.9872    7.0205 N   0  3  0  0  0  0  0  0  0  0  0  0
   75.5907    3.1313    6.3542 C   0  0  0  0  0  0  0  0  0  0  0  0
   74.0345    3.5858    5.8506 S   0  0  0  0  0  0  0  0  0  0  0  0
   73.3379    2.1747    6.5360 C   0  0  0  0  0  0  0  0  0  0  0  0
   74.3267    1.3799    7.0924 C   0  0  0  0  0  0  0  0  0  0  0  0
   74.1816    0.0269    7.6827 C   0  0  0  0  0  0  0  0  0  0  0  0
   71.8525    1.9529    6.4254 C   0  0  0  0  0  0  0  0  0  0  0  0
   71.0313    3.0036    7.1660 C   0  0  0  0  0  0  0  0  0  0  0  0
   69.6786    2.6137    7.1042 O   0  0  0  0  0  0  0  0  0  0  0  0
   68.5973    3.6846    7.6951 P   0  0  2  0  0  0  0  0  0  0  0  0
   68.6323    4.8829    6.6419 O   0  0  0  0  0  0  0  0  0  0  0  0
   69.2082    4.1539    9.0199 O   0  0  0  0  0  0  0  0  0  0  0  0
   67.2634    2.9660    7.8030 O   0  0  0  0  0  0  0  0  0  0  0  0
   68.5273    5.0525    5.0448 P   0  0  0  0  0  0  0  0  0  0  0  0
   69.9284    4.7469    4.5042 O   0  0  0  0  0  0  0  0  0  0  0  0
   67.4586    4.0927    4.5317 O   0  0  0  0  0  0  0  0  0  0  0  0
   68.1475    6.5234    4.8498 O   0  0  0  0  0  0  0  0  0  0  0  0
   77.3313    0.9885   13.6964 H   0  0  0  0  0  0  0  0  0  0  0  0
   76.6515    2.6244   13.5843 H   0  0  0  0  0  0  0  0  0  0  0  0
   78.4070    2.3728   13.4288 H   0  0  0  0  0  0  0  0  0  0  0  0
   77.4077    4.1525    7.9767 H   0  0  0  0  0  0  0  0  0  0  0  0
   77.5920    4.7753    9.5585 H   0  0  0  0  0  0  0  0  0  0  0  0
   76.7425   -0.4973    9.5089 H   0  0  0  0  0  0  0  0  0  0  0  0
   76.8828    0.3525    7.2546 H   0  0  0  0  0  0  0  0  0  0  0  0
   77.6981    1.8715    7.0104 H   0  0  0  0  0  0  0  0  0  0  0  0
   76.4587    3.7315    6.1266 H   0  0  0  0  0  0  0  0  0  0  0  0
   73.1459   -0.3212    7.6543 H   0  0  0  0  0  0  0  0  0  0  0  0
   74.4881    0.0151    8.7284 H   0  0  0  0  0  0  0  0  0  0  0  0
   74.7769   -0.7041    7.1252 H   0  0  0  0  0  0  0  0  0  0  0  0
   71.5938    0.9667    6.8287 H   0  0  0  0  0  0  0  0  0  0  0  0
   71.5546    1.9122    5.3700 H   0  0  0  0  0  0  0  0  0  0  0  0
   71.1747    3.9999    6.7401 H   0  0  0  0  0  0  0  0  0  0  0  0
   71.3477    3.0323    8.2166 H   0  0  0  0  0  0  0  0  0  0  0  0
  1  2  2  0  0  0  0
  1  8  1  0  0  0  0
  2  3  1  0  0  0  0
  2  4  1  0  0  0  0
  3 27  1  0  0  0  0
  3 28  1  0  0  0  0
  3 29  1  0  0  0  0
  4  5  2  0  0  0  0
  5  6  1  0  0  0  0
  5  7  1  0  0  0  0
  6 30  1  0  0  0  0
  6 31  1  0  0  0  0
  7  8  2  0  0  0  0
  7  9  1  0  0  0  0
  8 32  1  0  0  0  0
  9 10  1  0  0  0  0
  9 33  1  0  0  0  0
  9 34  1  0  0  0  0
 10 11  2  0  0  0  0
 10 14  1  0  0  0  0
 11 12  1  0  0  0  0
 11 35  1  0  0  0  0
 12 13  1  0  0  0  0
 13 14  2  0  0  0  0
 13 16  1  0  0  0  0
 14 15  1  0  0  0  0
 15 36  1  0  0  0  0
 15 37  1  0  0  0  0
 15 38  1  0  0  0  0
 16 17  1  0  0  0  0
 16 39  1  0  0  0  0
 16 40  1  0  0  0  0
 17 18  1  0  0  0  0
 17 41  1  0  0  0  0
 17 42  1  0  0  0  0
 19 18  1  6  0  0  0
 19 20  1  0  0  0  0
 19 21  2  0  0  0  0
 19 22  1  0  0  0  0
 20 23  1  0  0  0  0
 23 24  2  0  0  0  0
 23 25  1  0  0  0  0
 23 26  1  0  0  0  0
M  CHG  1  10   1
M  END
$$$$
