TI1
 OpenBabel04041916373D

 53 53  0  0  1  0  0  0  0  0999 V2000
   34.0128   43.2308   -7.2652 S   0  0  0  0  0  0  0  0  0  0  0  0
   34.5050   41.5955   -6.5515 C   0  0  1  0  0  0  0  0  0  0  0  0
   35.1280   40.7195   -7.6540 C   0  0  0  0  0  0  0  0  0  0  0  0
   34.1741   39.7108   -8.2697 C   0  0  0  0  0  0  0  0  0  0  0  0
   33.7937   38.6308   -7.2675 C   0  0  0  0  0  0  0  0  0  0  0  0
   32.7732   37.6884   -7.8846 C   0  0  0  0  0  0  0  0  0  0  0  0
   32.4006   36.6045   -6.9030 C   0  0  0  0  0  0  0  0  0  0  0  0
   35.5968   41.8659   -5.5414 C   0  0  0  0  0  0  0  0  0  0  0  0
   36.6801   42.3464   -5.8755 O   0  0  0  0  0  0  0  0  0  0  0  0
   35.3016   41.6239   -4.2079 N   0  0  0  0  0  0  0  0  0  0  0  0
   36.3128   42.0518   -3.2371 C   0  0  1  0  0  0  0  0  0  0  0  0
   35.7408   42.0463   -1.8228 C   0  0  0  0  0  0  0  0  0  0  0  0
   36.6073   42.8010   -0.8511 C   0  0  0  0  0  0  0  0  0  0  0  0
   36.8994   44.1585   -1.0639 C   0  0  0  0  0  0  0  0  0  0  0  0
   37.1691   42.1461    0.2494 C   0  0  0  0  0  0  0  0  0  0  0  0
   37.7658   44.8365   -0.2086 C   0  0  0  0  0  0  0  0  0  0  0  0
   38.0323   42.8298    1.1074 C   0  0  0  0  0  0  0  0  0  0  0  0
   38.3339   44.1700    0.8748 C   0  0  0  0  0  0  0  0  0  0  0  0
   37.5791   41.1681   -3.3029 C   0  0  0  0  0  0  0  0  0  0  0  0
   38.6977   41.6721   -3.2442 O   0  0  0  0  0  0  0  0  0  0  0  0
   37.3356   39.8337   -3.2156 N   0  0  0  0  0  0  0  0  0  0  0  0
   38.4441   38.8592   -3.3621 C   0  0  1  0  0  0  0  0  0  0  0  0
   38.3671   37.9211   -2.1662 C   0  0  0  0  0  0  0  0  0  0  0  0
   38.4290   38.0432   -4.6945 C   0  0  0  0  0  0  0  0  0  0  0  0
   37.3155   38.0194   -5.2963 O   0  0  0  0  0  0  0  0  0  0  0  0
   39.5208   37.4734   -4.9904 O   0  0  0  0  0  0  0  0  0  0  0  0
   33.8057   43.8749   -6.1048 H   0  0  0  0  0  0  0  0  0  0  0  0
   33.6265   41.1405   -6.0862 H   0  0  0  0  0  0  0  0  0  0  0  0
   35.9804   40.1565   -7.2497 H   0  0  0  0  0  0  0  0  0  0  0  0
   35.5238   41.3464   -8.4582 H   0  0  0  0  0  0  0  0  0  0  0  0
   34.6785   39.2343   -9.1238 H   0  0  0  0  0  0  0  0  0  0  0  0
   33.2837   40.2122   -8.6561 H   0  0  0  0  0  0  0  0  0  0  0  0
   33.3657   39.0758   -6.3646 H   0  0  0  0  0  0  0  0  0  0  0  0
   34.6872   38.0755   -6.9587 H   0  0  0  0  0  0  0  0  0  0  0  0
   33.1894   37.2385   -8.7944 H   0  0  0  0  0  0  0  0  0  0  0  0
   31.8779   38.2542   -8.1665 H   0  0  0  0  0  0  0  0  0  0  0  0
   31.6678   35.9317   -7.3433 H   0  0  0  0  0  0  0  0  0  0  0  0
   31.9728   37.0445   -5.9927 H   0  0  0  0  0  0  0  0  0  0  0  0
   33.2877   36.0265   -6.6187 H   0  0  0  0  0  0  0  0  0  0  0  0
   34.4126   41.2728   -3.9277 H   0  0  0  0  0  0  0  0  0  0  0  0
   36.6333   43.0595   -3.5290 H   0  0  0  0  0  0  0  0  0  0  0  0
   35.5854   41.0181   -1.4757 H   0  0  0  0  0  0  0  0  0  0  0  0
   34.7500   42.5206   -1.8309 H   0  0  0  0  0  0  0  0  0  0  0  0
   36.4794   44.6829   -1.9159 H   0  0  0  0  0  0  0  0  0  0  0  0
   36.9597   41.0948    0.4272 H   0  0  0  0  0  0  0  0  0  0  0  0
   38.0070   45.8762   -0.4008 H   0  0  0  0  0  0  0  0  0  0  0  0
   38.4815   42.3076    1.9458 H   0  0  0  0  0  0  0  0  0  0  0  0
   39.0189   44.6948    1.5325 H   0  0  0  0  0  0  0  0  0  0  0  0
   36.4228   39.4557   -3.4265 H   0  0  0  0  0  0  0  0  0  0  0  0
   39.3930   39.4002   -3.3180 H   0  0  0  0  0  0  0  0  0  0  0  0
   39.1828   37.2012   -2.1722 H   0  0  0  0  0  0  0  0  0  0  0  0
   37.4156   37.3795   -2.1582 H   0  0  0  0  0  0  0  0  0  0  0  0
   38.4208   38.5009   -1.2377 H   0  0  0  0  0  0  0  0  0  0  0  0
  1  2  1  0  0  0  0
  1 27  1  0  0  0  0
  2  8  1  0  0  0  0
  2  3  1  0  0  0  0
  2 28  1  1  0  0  0
  3  4  1  0  0  0  0
  3 29  1  0  0  0  0
  3 30  1  0  0  0  0
  4  5  1  0  0  0  0
  4 31  1  0  0  0  0
  4 32  1  0  0  0  0
  5  6  1  0  0  0  0
  5 33  1  0  0  0  0
  5 34  1  0  0  0  0
  6  7  1  0  0  0  0
  6 35  1  0  0  0  0
  6 36  1  0  0  0  0
  7 37  1  0  0  0  0
  7 38  1  0  0  0  0
  7 39  1  0  0  0  0
  8 10  1  0  0  0  0
  8  9  2  0  0  0  0
 10 11  1  0  0  0  0
 10 40  1  0  0  0  0
 11 19  1  0  0  0  0
 11 12  1  0  0  0  0
 11 41  1  6  0  0  0
 12 13  1  0  0  0  0
 12 42  1  0  0  0  0
 12 43  1  0  0  0  0
 13 15  2  0  0  0  0
 13 14  1  0  0  0  0
 14 16  2  0  0  0  0
 14 44  1  0  0  0  0
 15 17  1  0  0  0  0
 15 45  1  0  0  0  0
 16 18  1  0  0  0  0
 16 46  1  0  0  0  0
 17 18  2  0  0  0  0
 17 47  1  0  0  0  0
 18 48  1  0  0  0  0
 19 21  1  0  0  0  0
 19 20  2  0  0  0  0
 21 22  1  0  0  0  0
 21 49  1  0  0  0  0
 22 24  1  0  0  0  0
 22 23  1  0  0  0  0
 22 50  1  1  0  0  0
 23 51  1  0  0  0  0
 23 52  1  0  0  0  0
 23 53  1  0  0  0  0
 24 26  2  0  0  0  0
 24 25  1  0  0  0  0
M  END
$$$$
