TMU
 OpenBabel04041916313D

 33 34  0  0  0  0  0  0  0  0999 V2000
   22.4143   23.6052    6.7737 C   0  0  0  0  0  0  0  0  0  0  0  0
   21.5076   24.4726    7.9900 S   0  0  0  0  0  0  0  0  0  0  0  0
   21.6943   23.3150    5.6988 N   0  0  0  0  0  0  0  0  0  0  0  0
   23.7707   23.2001    6.8483 N   0  0  0  0  0  0  0  0  0  0  0  0
   20.0970   24.4803    7.0050 C   0  0  0  0  0  0  0  0  0  0  0  0
   20.3914   23.8200    5.8302 C   0  0  0  0  0  0  0  0  0  0  0  0
   24.5979   23.5563    7.8445 C   0  0  0  0  0  0  0  0  0  0  0  0
   18.8229   25.0935    7.3720 N   0  0  0  0  0  0  0  0  0  0  0  0
   25.9248   23.1597    7.7385 N   0  0  0  0  0  0  0  0  0  0  0  0
   24.2900   24.2389    8.8121 O   0  0  0  0  0  0  0  0  0  0  0  0
   18.0466   25.3854    6.4397 O   0  0  0  0  0  0  0  0  0  0  0  0
   18.5538   25.2446    8.5747 O   0  0  0  0  0  0  0  0  0  0  0  0
   26.8912   23.4386    8.8132 C   0  0  0  0  0  0  0  0  0  0  0  0
   26.9253   22.3500    9.8640 C   0  0  0  0  0  0  0  0  0  0  0  0
   26.8325   20.9978    9.4985 C   0  0  0  0  0  0  0  0  0  0  0  0
   27.0644   22.6787   11.2243 C   0  0  0  0  0  0  0  0  0  0  0  0
   26.8363   19.9946   10.4676 C   0  0  0  0  0  0  0  0  0  0  0  0
   27.0707   21.6763   12.1986 C   0  0  0  0  0  0  0  0  0  0  0  0
   26.9720   20.3394   11.8116 C   0  0  0  0  0  0  0  0  0  0  0  0
   26.9799   19.3514   12.7635 O   0  0  0  0  0  0  0  0  0  0  0  0
   28.3307   18.9554   13.0109 C   0  0  0  0  0  0  0  0  0  0  0  0
   24.1176   22.6551    6.0684 H   0  0  0  0  0  0  0  0  0  0  0  0
   19.6807   23.6611    5.0177 H   0  0  0  0  0  0  0  0  0  0  0  0
   26.2295   22.5534    6.9995 H   0  0  0  0  0  0  0  0  0  0  0  0
   26.6452   24.3997    9.2827 H   0  0  0  0  0  0  0  0  0  0  0  0
   27.8893   23.5386    8.3672 H   0  0  0  0  0  0  0  0  0  0  0  0
   26.7306   20.7284    8.4501 H   0  0  0  0  0  0  0  0  0  0  0  0
   27.1441   23.7230   11.5279 H   0  0  0  0  0  0  0  0  0  0  0  0
   26.7459   18.9538   10.1661 H   0  0  0  0  0  0  0  0  0  0  0  0
   27.1659   21.9437   13.2488 H   0  0  0  0  0  0  0  0  0  0  0  0
   28.3435   18.1679   13.7717 H   0  0  0  0  0  0  0  0  0  0  0  0
   28.9175   19.7995   13.3858 H   0  0  0  0  0  0  0  0  0  0  0  0
   28.7854   18.5547   12.0996 H   0  0  0  0  0  0  0  0  0  0  0  0
  1  2  1  0  0  0  0
  1  3  2  0  0  0  0
  1  4  1  0  0  0  0
  2  5  1  0  0  0  0
  3  6  1  0  0  0  0
  4  7  1  0  0  0  0
  4 22  1  0  0  0  0
  5  6  2  0  0  0  0
  5  8  1  0  0  0  0
  6 23  1  0  0  0  0
  7  9  1  0  0  0  0
  7 10  2  0  0  0  0
  8 11  2  0  0  0  0
  8 12  2  0  0  0  0
  9 13  1  0  0  0  0
  9 24  1  0  0  0  0
 13 14  1  0  0  0  0
 13 25  1  0  0  0  0
 13 26  1  0  0  0  0
 14 15  2  0  0  0  0
 14 16  1  0  0  0  0
 15 17  1  0  0  0  0
 15 27  1  0  0  0  0
 16 18  2  0  0  0  0
 16 28  1  0  0  0  0
 17 19  2  0  0  0  0
 17 29  1  0  0  0  0
 18 19  1  0  0  0  0
 18 30  1  0  0  0  0
 19 20  1  0  0  0  0
 20 21  1  0  0  0  0
 21 31  1  0  0  0  0
 21 32  1  0  0  0  0
 21 33  1  0  0  0  0
M  END
$$$$
