TP4
 OpenBabel04041914323D

 56 57  0  0  1  0  0  0  0  0999 V2000
   15.8810   13.7940   30.1548 C   0  0  0  0  0  0  0  0  0  0  0  0
   16.9759   13.9913   31.2083 C   0  0  0  0  0  0  0  0  0  0  0  0
   16.8188   15.4004   31.6152 N   0  0  0  0  0  0  0  0  0  0  0  0
   15.8153   16.0972   30.7507 C   0  0  2  0  0  0  0  0  0  0  0  0
   15.7465   15.1775   29.5210 C   0  0  0  0  0  0  0  0  0  0  0  0
   16.2004   17.5633   30.4147 C   0  0  0  0  0  0  0  0  0  0  0  0
   17.3840   17.9060   30.3365 O   0  0  0  0  0  0  0  0  0  0  0  0
   15.1600   18.4418   30.1587 N   0  0  0  0  0  0  0  0  0  0  0  0
   17.1589   15.9601   33.1688 S   0  0  0  0  0  0  0  0  0  0  0  0
   16.0813   15.0473   34.2699 C   0  0  0  0  0  0  0  0  0  0  0  0
   18.5087   15.5834   33.5045 O   0  0  0  0  0  0  0  0  0  0  0  0
   16.6976   17.3305   33.2706 O   0  0  0  0  0  0  0  0  0  0  0  0
   14.7051   15.1297   34.0700 C   0  0  0  0  0  0  0  0  0  0  0  0
   13.8315   14.5348   34.9769 C   0  0  0  0  0  0  0  0  0  0  0  0
   14.3270   13.8584   36.1012 C   0  0  0  0  0  0  0  0  0  0  0  0
   15.7138   13.7990   36.3144 C   0  0  0  0  0  0  0  0  0  0  0  0
   16.5966   14.3911   35.3968 C   0  0  0  0  0  0  0  0  0  0  0  0
   13.3393   13.1809   36.9776 C   0  0  0  0  0  0  0  0  0  0  0  0
   13.7914   12.6534   38.1428 N   0  0  0  0  0  0  0  0  0  0  0  0
   12.8919   12.0486   39.1337 C   0  0  1  0  0  0  0  0  0  0  0  0
   13.1313   10.5330   39.2656 C   0  0  0  0  0  0  0  0  0  0  0  0
   14.0197    9.8742   38.2022 C   0  0  0  0  0  0  0  0  0  0  0  0
   14.6800    8.5977   38.7555 C   0  0  0  0  0  0  0  0  0  0  0  0
   12.1567   13.0965   36.6050 O   0  0  0  0  0  0  0  0  0  0  0  0
   13.0614   12.7748   40.5210 C   0  0  0  0  0  0  0  0  0  0  0  0
   12.0748   12.7211   41.3088 O   0  0  0  0  0  0  0  0  0  0  0  0
   14.1629   13.4055   40.6566 O   0  0  0  0  0  0  0  0  0  0  0  0
   15.2074    8.6703   39.8903 O   0  0  0  0  0  0  0  0  0  0  0  0
   14.6525    7.6033   37.9724 O   0  0  0  0  0  0  0  0  0  0  0  0
   15.2948   19.9224   30.0606 C   0  0  0  0  0  0  0  0  0  0  0  0
   15.1010   20.6279   31.3955 C   0  0  0  0  0  0  0  0  0  0  0  0
   15.4316   22.1209   31.2447 C   0  0  0  0  0  0  0  0  0  0  0  0
   14.4823   22.9140   31.5062 O   0  0  0  0  0  0  0  0  0  0  0  0
   16.6022   22.3931   30.8563 O   0  0  0  0  0  0  0  0  0  0  0  0
   16.1228   13.0109   29.4291 H   0  0  0  0  0  0  0  0  0  0  0  0
   14.9388   13.5161   30.6444 H   0  0  0  0  0  0  0  0  0  0  0  0
   17.9601   13.8215   30.7549 H   0  0  0  0  0  0  0  0  0  0  0  0
   16.8516   13.2988   32.0429 H   0  0  0  0  0  0  0  0  0  0  0  0
   14.8438   16.0864   31.2471 H   0  0  0  0  0  0  0  0  0  0  0  0
   14.8161   15.2889   28.9589 H   0  0  0  0  0  0  0  0  0  0  0  0
   16.5805   15.3540   28.8282 H   0  0  0  0  0  0  0  0  0  0  0  0
   14.2070   18.1015   30.1354 H   0  0  0  0  0  0  0  0  0  0  0  0
   14.3017   15.6786   33.2294 H   0  0  0  0  0  0  0  0  0  0  0  0
   12.7575   14.5950   34.8122 H   0  0  0  0  0  0  0  0  0  0  0  0
   16.1226   13.2853   37.1785 H   0  0  0  0  0  0  0  0  0  0  0  0
   17.6629   14.3485   35.5878 H   0  0  0  0  0  0  0  0  0  0  0  0
   14.7203   12.8182   38.5222 H   0  0  0  0  0  0  0  0  0  0  0  0
   11.8562   12.1984   38.8003 H   0  0  0  0  0  0  0  0  0  0  0  0
   12.1585   10.0201   39.2364 H   0  0  0  0  0  0  0  0  0  0  0  0
   13.5324   10.3332   40.2605 H   0  0  0  0  0  0  0  0  0  0  0  0
   14.8278   10.5417   37.8891 H   0  0  0  0  0  0  0  0  0  0  0  0
   13.4334    9.6433   37.3035 H   0  0  0  0  0  0  0  0  0  0  0  0
   14.5111   20.2600   29.3684 H   0  0  0  0  0  0  0  0  0  0  0  0
   16.2612   20.1793   29.6096 H   0  0  0  0  0  0  0  0  0  0  0  0
   15.7570   20.1904   32.1545 H   0  0  0  0  0  0  0  0  0  0  0  0
   14.0675   20.5063   31.7516 H   0  0  0  0  0  0  0  0  0  0  0  0
  1  5  1  0  0  0  0
  1  2  1  0  0  0  0
  1 35  1  0  0  0  0
  1 36  1  0  0  0  0
  2  3  1  0  0  0  0
  2 37  1  0  0  0  0
  2 38  1  0  0  0  0
  3  9  1  0  0  0  0
  3  4  1  0  0  0  0
  4  6  1  0  0  0  0
  4  5  1  0  0  0  0
  4 39  1  1  0  0  0
  5 40  1  0  0  0  0
  5 41  1  0  0  0  0
  6  8  1  0  0  0  0
  6  7  2  0  0  0  0
  8 30  1  0  0  0  0
  8 42  1  0  0  0  0
  9 12  2  0  0  0  0
  9 11  2  0  0  0  0
  9 10  1  0  0  0  0
 10 17  2  0  0  0  0
 10 13  1  0  0  0  0
 13 14  2  0  0  0  0
 13 43  1  0  0  0  0
 14 15  1  0  0  0  0
 14 44  1  0  0  0  0
 15 18  1  0  0  0  0
 15 16  2  0  0  0  0
 16 17  1  0  0  0  0
 16 45  1  0  0  0  0
 17 46  1  0  0  0  0
 18 24  2  0  0  0  0
 18 19  1  0  0  0  0
 19 20  1  0  0  0  0
 19 47  1  0  0  0  0
 20 25  1  0  0  0  0
 20 21  1  0  0  0  0
 20 48  1  6  0  0  0
 21 22  1  0  0  0  0
 21 49  1  0  0  0  0
 21 50  1  0  0  0  0
 22 23  1  0  0  0  0
 22 51  1  0  0  0  0
 22 52  1  0  0  0  0
 23 29  2  0  0  0  0
 23 28  1  0  0  0  0
 25 27  2  0  0  0  0
 25 26  1  0  0  0  0
 30 31  1  0  0  0  0
 30 53  1  0  0  0  0
 30 54  1  0  0  0  0
 31 32  1  0  0  0  0
 31 55  1  0  0  0  0
 31 56  1  0  0  0  0
 32 34  2  0  0  0  0
 32 33  1  0  0  0  0
M  END
$$$$
