TPG
 OpenBabel04041917403D

 85 90  0  0  1  0  0  0  0  0999 V2000
   13.4014   40.2141   11.7746 O   0  0  0  0  0  0  0  0  0  0  0  0
   13.1697   39.0130   11.7466 C   0  0  0  0  0  0  0  0  0  0  0  0
   13.5816   38.1767   12.7779 N   0  3  0  0  0  0  0  0  0  0  0  0
   13.3414   36.8241   12.9041 C   0  0  1  0  0  0  0  0  0  0  0  0
   13.8747   36.1786   14.0067 N   0  0  0  0  0  0  0  0  0  0  0  0
   13.6861   34.7255   14.1186 C   0  0  0  0  0  0  0  0  0  0  0  0
   14.7587   36.7613   15.0114 C   0  0  0  0  0  0  0  0  0  0  0  0
   12.6090   36.1607   12.0309 N   0  0  0  0  0  0  0  0  0  0  0  0
   12.1682   36.9322   11.0092 C   0  0  2  0  0  0  0  0  0  0  0  0
   12.4105   38.2647   10.8220 C   0  0  1  0  0  0  0  0  0  0  0  0
   11.7371   38.6708    9.6904 N   0  3  1  0  0  0  0  0  0  0  0  0
   11.9146   39.9830    9.0875 C   0  0  0  0  0  0  0  0  0  0  0  0
   11.0816   37.6270    9.1925 C   0  0  0  0  0  0  0  0  0  0  0  0
   11.3298   36.5612    9.9744 N   0  3  1  0  0  0  0  0  0  0  0  0
   11.0270   35.1555    9.6877 C   0  0  2  0  0  0  0  0  0  0  0  0
   12.1102   34.6687    8.8892 O   0  0  0  0  0  0  0  0  0  0  0  0
    9.7635   34.9202    8.8935 C   0  0  2  0  0  0  0  0  0  0  0  0
    9.2399   33.5975    9.1443 O   0  0  0  0  0  0  0  0  0  0  0  0
   10.2745   35.0475    7.4708 C   0  0  2  0  0  0  0  0  0  0  0  0
    9.3413   34.4707    6.5887 O   0  0  0  0  0  0  0  0  0  0  0  0
   11.6160   34.3461    7.5617 C   0  0  1  0  0  0  0  0  0  0  0  0
   12.6029   34.8448    6.5139 C   0  0  0  0  0  0  0  0  0  0  0  0
   12.1377   34.6188    5.2049 O   0  0  0  0  0  0  0  0  0  0  0  0
   12.7146   35.6388    4.0601 P   0  0  2  0  0  0  0  0  0  0  0  0
   13.6869   36.5718    4.7378 O   0  0  0  0  0  0  0  0  0  0  0  0
   11.4605   36.2845    3.4860 O   0  0  0  0  0  0  0  0  0  0  0  0
   13.3539   34.6141    3.0069 O   0  0  0  0  0  0  0  0  0  0  0  0
   14.8424   33.9797    2.9558 P   0  0  1  0  0  0  0  0  0  0  0  0
   15.0097   33.3645    1.5746 O   0  0  0  0  0  0  0  0  0  0  0  0
   15.8400   35.0157    3.4029 O   0  0  0  0  0  0  0  0  0  0  0  0
   14.6837   32.8019    4.0366 O   0  0  0  0  0  0  0  0  0  0  0  0
   15.8873   32.0252    4.7509 P   0  0  1  0  0  0  0  0  0  0  0  0
   16.5600   31.0082    3.8354 O   0  0  0  0  0  0  0  0  0  0  0  0
   16.7038   32.8953    5.6548 O   0  0  0  0  0  0  0  0  0  0  0  0
   14.9883   31.0651    5.7444 O   0  0  0  0  0  0  0  0  0  0  0  0
   14.1889   31.7305    6.6957 C   0  0  0  0  0  0  0  0  0  0  0  0
   14.8804   31.7864    8.0535 C   0  0  1  0  0  0  0  0  0  0  0  0
   15.8712   32.8212    8.1872 O   0  0  0  0  0  0  0  0  0  0  0  0
   13.9391   32.1039    9.1927 C   0  0  1  0  0  0  0  0  0  0  0  0
   13.0272   31.0696    9.5301 O   0  0  0  0  0  0  0  0  0  0  0  0
   14.9225   32.4004   10.3129 C   0  0  1  0  0  0  0  0  0  0  0  0
   15.4166   31.1630   10.8623 O   0  0  0  0  0  0  0  0  0  0  0  0
   16.0099   33.1803    9.5682 C   0  0  2  0  0  0  0  0  0  0  0  0
   15.8764   34.6235    9.7228 N   0  3  0  0  0  0  0  0  0  0  0  0
   15.3084   35.5107    8.8377 C   0  0  0  0  0  0  0  0  0  0  0  0
   15.2759   36.7465    9.3054 N   0  0  0  0  0  0  0  0  0  0  0  0
   15.9915   36.6684   10.4592 C   0  0  0  0  0  0  0  0  0  0  0  0
   16.2963   35.3691   10.7947 C   0  0  0  0  0  0  0  0  0  0  0  0
   16.8854   34.9251   11.9339 N   0  0  0  0  0  0  0  0  0  0  0  0
   17.2180   35.8845   12.7545 C   0  0  0  0  0  0  0  0  0  0  0  0
   17.8023   35.5758   13.9355 N   0  0  0  0  0  0  0  0  0  0  0  0
   16.9829   37.2244   12.5127 N   0  3  0  0  0  0  0  0  0  0  0  0
   16.3675   37.7125   11.3719 C   0  0  0  0  0  0  0  0  0  0  0  0
   16.1104   38.9071   11.2553 O   0  0  0  0  0  0  0  0  0  0  0  0
   14.1279   38.6756   13.4489 H   0  0  0  0  0  0  0  0  0  0  0  0
   14.2066   34.2977   14.9778 H   0  0  0  0  0  0  0  0  0  0  0  0
   14.0454   34.2162   13.2180 H   0  0  0  0  0  0  0  0  0  0  0  0
   12.6122   34.5104   14.2353 H   0  0  0  0  0  0  0  0  0  0  0  0
   14.9484   37.8300   14.8736 H   0  0  0  0  0  0  0  0  0  0  0  0
   15.7284   36.2816   15.0116 H   0  0  0  0  0  0  0  0  0  0  0  0
   14.3417   36.6375   16.0210 H   0  0  0  0  0  0  0  0  0  0  0  0
   11.3736   40.0496    8.1430 H   0  0  0  0  0  0  0  0  0  0  0  0
   12.9793   40.1792    8.9290 H   0  0  0  0  0  0  0  0  0  0  0  0
   11.5127   40.7279    9.7842 H   0  0  0  0  0  0  0  0  0  0  0  0
   10.4397   37.6848    8.3221 H   0  0  0  0  0  0  0  0  0  0  0  0
   11.0269   34.6249   10.6121 H   0  0  0  0  0  0  0  0  0  0  0  0
    8.9578   35.6088    9.1421 H   0  0  0  0  0  0  0  0  0  0  0  0
    8.6301   33.3976    8.4011 H   0  0  0  0  0  0  0  0  0  0  0  0
   10.4616   36.0904    7.1966 H   0  0  0  0  0  0  0  0  0  0  0  0
    8.6130   35.0996    6.4639 H   0  0  0  0  0  0  0  0  0  0  0  0
   11.4726   33.2619    7.4760 H   0  0  0  0  0  0  0  0  0  0  0  0
   13.5594   34.3607    6.6329 H   0  0  0  0  0  0  0  0  0  0  0  0
   12.8317   35.8939    6.7154 H   0  0  0  0  0  0  0  0  0  0  0  0
   13.2401   31.1891    6.7620 H   0  0  0  0  0  0  0  0  0  0  0  0
   13.9579   32.7025    6.3065 H   0  0  0  0  0  0  0  0  0  0  0  0
   15.3648   30.8206    8.2163 H   0  0  0  0  0  0  0  0  0  0  0  0
   13.3965   33.0073    8.9580 H   0  0  0  0  0  0  0  0  0  0  0  0
   12.3758   31.4489   10.1419 H   0  0  0  0  0  0  0  0  0  0  0  0
   14.4719   32.9362   11.1499 H   0  0  0  0  0  0  0  0  0  0  0  0
   14.6533   30.5535   10.8658 H   0  0  0  0  0  0  0  0  0  0  0  0
   17.0171   32.9075    9.8984 H   0  0  0  0  0  0  0  0  0  0  0  0
   14.9456   35.1975    7.8684 H   0  0  0  0  0  0  0  0  0  0  0  0
   18.0011   34.5961   14.0955 H   0  0  0  0  0  0  0  0  0  0  0  0
   18.1143   36.2509   14.6145 H   0  0  0  0  0  0  0  0  0  0  0  0
   17.2322   37.9261   13.1834 H   0  0  0  0  0  0  0  0  0  0  0  0
  1  2  2  0  0  0  0
  2  3  1  0  0  0  0
  3  4  1  0  0  0  0
  3 55  1  0  0  0  0
  4  5  1  1  0  0  0
  4  8  1  0  0  0  0
  5  6  1  0  0  0  0
  5  7  1  0  0  0  0
  6 56  1  0  0  0  0
  6 57  1  0  0  0  0
  6 58  1  0  0  0  0
  7 59  1  0  0  0  0
  7 60  1  0  0  0  0
  7 61  1  0  0  0  0
  9  8  1  1  0  0  0
  9 10  1  0  0  0  0
  9 14  1  0  0  0  0
 10  2  1  1  0  0  0
 10 11  1  0  0  0  0
 11 12  1  6  0  0  0
 11 13  1  0  0  0  0
 12 62  1  0  0  0  0
 12 63  1  0  0  0  0
 12 64  1  0  0  0  0
 13 65  1  0  0  0  0
 14 13  1  6  0  0  0
 14 15  1  0  0  0  0
 15 16  1  0  0  0  0
 15 17  1  0  0  0  0
 15 66  1  1  0  0  0
 16 21  1  0  0  0  0
 17 18  1  0  0  0  0
 17 19  1  0  0  0  0
 17 67  1  1  0  0  0
 18 68  1  0  0  0  0
 19 20  1  0  0  0  0
 19 21  1  0  0  0  0
 19 69  1  6  0  0  0
 20 70  1  0  0  0  0
 21 22  1  0  0  0  0
 21 71  1  6  0  0  0
 22 23  1  0  0  0  0
 22 72  1  0  0  0  0
 22 73  1  0  0  0  0
 24 23  1  1  0  0  0
 24 25  2  0  0  0  0
 24 26  1  0  0  0  0
 24 27  1  0  0  0  0
 28 27  1  6  0  0  0
 28 29  2  0  0  0  0
 28 30  1  0  0  0  0
 28 31  1  0  0  0  0
 32 31  1  6  0  0  0
 32 33  2  0  0  0  0
 32 34  1  0  0  0  0
 32 35  1  0  0  0  0
 35 36  1  0  0  0  0
 36 37  1  0  0  0  0
 36 74  1  0  0  0  0
 36 75  1  0  0  0  0
 37 38  1  0  0  0  0
 37 39  1  0  0  0  0
 37 76  1  1  0  0  0
 38 43  1  0  0  0  0
 39 40  1  0  0  0  0
 39 41  1  0  0  0  0
 39 77  1  6  0  0  0
 40 78  1  0  0  0  0
 41 42  1  0  0  0  0
 41 43  1  0  0  0  0
 41 79  1  1  0  0  0
 42 80  1  0  0  0  0
 43 44  1  0  0  0  0
 43 81  1  1  0  0  0
 44 45  2  0  0  0  0
 44 48  1  0  0  0  0
 45 46  1  0  0  0  0
 45 82  1  0  0  0  0
 46 47  1  0  0  0  0
 47 48  2  0  0  0  0
 47 53  1  0  0  0  0
 48 49  1  0  0  0  0
 49 50  2  0  0  0  0
 50 51  1  0  0  0  0
 50 52  1  0  0  0  0
 51 83  1  0  0  0  0
 51 84  1  0  0  0  0
 52 53  1  0  0  0  0
 52 85  1  0  0  0  0
 53 54  2  0  0  0  0
M  CHG  5   3   1  11   1  14   1  44   1  52   1
M  END
$$$$
