TPI
 OpenBabel04041914073D

 43 44  0  0  1  0  0  0  0  0999 V2000
  -20.4776   58.4335   12.0150 P   0  0  0  0  0  0  0  0  0  0  0  0
  -20.4441   56.9950   11.4832 O   0  0  0  0  0  0  0  0  0  0  0  0
  -21.3893   59.3465   11.2061 O   0  0  0  0  0  0  0  0  0  0  0  0
  -19.0867   59.0297   12.2596 O   0  0  0  0  0  0  0  0  0  0  0  0
  -21.3112   58.3389   13.7123 C   0  0  0  0  0  0  0  0  0  0  0  0
  -20.8481   56.1300   14.8746 C   0  0  0  0  0  0  0  0  0  0  0  0
  -20.6131   57.5050   14.7366 C   0  0  0  0  0  0  0  0  0  0  0  0
  -19.7223   58.1346   15.6075 C   0  0  0  0  0  0  0  0  0  0  0  0
  -19.1021   57.4202   16.6175 C   0  0  0  0  0  0  0  0  0  0  0  0
  -18.7573   55.3426   17.8173 C   0  0  0  0  0  0  0  0  0  0  0  0
  -19.0012   53.9664   18.0024 C   0  0  0  0  0  0  0  0  0  0  0  0
  -19.8603   53.3148   17.1104 C   0  0  0  0  0  0  0  0  0  0  0  0
  -20.4781   54.0180   16.0638 C   0  0  0  0  0  0  0  0  0  0  0  0
  -20.2468   55.3934   15.8788 C   0  0  0  0  0  0  0  0  0  0  0  0
  -19.3644   56.0557   16.7705 C   0  0  0  0  0  0  0  0  0  0  0  0
  -18.3307   53.2566   19.1527 C   0  0  0  0  0  0  0  0  0  0  0  0
  -17.6136   53.9215   19.9068 O   0  0  0  0  0  0  0  0  0  0  0  0
  -18.5068   51.8829   19.3429 N   0  0  0  0  0  0  0  0  0  0  0  0
  -17.8464   51.2561   20.5152 C   0  0  2  0  0  0  0  0  0  0  0  0
  -16.3020   51.4254   20.5304 C   0  0  0  0  0  0  0  0  0  0  0  0
  -15.7450   52.0421   21.6380 N   0  0  0  0  0  0  0  0  0  0  0  0
  -15.5930   50.9965   19.6169 O   0  0  0  0  0  0  0  0  0  0  0  0
  -18.1496   49.7588   20.6397 C   0  0  0  0  0  0  0  0  0  0  0  0
  -19.6207   49.4974   20.9423 C   0  0  0  0  0  0  0  0  0  0  0  0
  -19.9139   47.9946   21.0894 C   0  0  0  0  0  0  0  0  0  0  0  0
  -21.1265   47.7069   21.2311 O   0  0  0  0  0  0  0  0  0  0  0  0
  -18.9251   47.2132   21.0673 O   0  0  0  0  0  0  0  0  0  0  0  0
  -21.4571   59.6395   14.1403 F   0  0  0  0  0  0  0  0  0  0  0  0
  -22.5770   57.8810   13.4552 F   0  0  0  0  0  0  0  0  0  0  0  0
  -21.5480   55.6434   14.1569 H   0  0  0  0  0  0  0  0  0  0  0  0
  -19.5188   59.2047   15.4874 H   0  0  0  0  0  0  0  0  0  0  0  0
  -18.4127   57.9268   17.2876 H   0  0  0  0  0  0  0  0  0  0  0  0
  -18.0853   55.8738   18.4955 H   0  0  0  0  0  0  0  0  0  0  0  0
  -20.0518   52.2563   17.2251 H   0  0  0  0  0  0  0  0  0  0  0  0
  -21.1525   53.4947   15.3756 H   0  0  0  0  0  0  0  0  0  0  0  0
  -19.1120   51.2982   18.7627 H   0  0  0  0  0  0  0  0  0  0  0  0
  -18.2205   51.7719   21.4005 H   0  0  0  0  0  0  0  0  0  0  0  0
  -14.7435   52.1913   21.6932 H   0  0  0  0  0  0  0  0  0  0  0  0
  -16.3055   52.4003   22.4015 H   0  0  0  0  0  0  0  0  0  0  0  0
  -17.5379   49.3313   21.4520 H   0  0  0  0  0  0  0  0  0  0  0  0
  -17.8778   49.2396   19.7076 H   0  0  0  0  0  0  0  0  0  0  0  0
  -20.2434   49.8982   20.1298 H   0  0  0  0  0  0  0  0  0  0  0  0
  -19.9029   50.0082   21.8753 H   0  0  0  0  0  0  0  0  0  0  0  0
  1  5  1  0  0  0  0
  1  4  2  0  0  0  0
  1  3  1  0  0  0  0
  1  2  1  0  0  0  0
  5  7  1  0  0  0  0
  5 29  1  0  0  0  0
  5 28  1  0  0  0  0
  6  7  2  0  0  0  0
  6 14  1  0  0  0  0
  6 30  1  0  0  0  0
  7  8  1  0  0  0  0
  8  9  2  0  0  0  0
  8 31  1  0  0  0  0
  9 15  1  0  0  0  0
  9 32  1  0  0  0  0
 10 15  1  0  0  0  0
 10 11  2  0  0  0  0
 10 33  1  0  0  0  0
 11 16  1  0  0  0  0
 11 12  1  0  0  0  0
 12 13  2  0  0  0  0
 12 34  1  0  0  0  0
 13 14  1  0  0  0  0
 13 35  1  0  0  0  0
 14 15  2  0  0  0  0
 16 18  1  0  0  0  0
 16 17  2  0  0  0  0
 18 19  1  0  0  0  0
 18 36  1  0  0  0  0
 19 23  1  0  0  0  0
 19 20  1  0  0  0  0
 19 37  1  1  0  0  0
 20 22  2  0  0  0  0
 20 21  1  0  0  0  0
 21 38  1  0  0  0  0
 21 39  1  0  0  0  0
 23 24  1  0  0  0  0
 23 40  1  0  0  0  0
 23 41  1  0  0  0  0
 24 25  1  0  0  0  0
 24 42  1  0  0  0  0
 24 43  1  0  0  0  0
 25 27  2  0  0  0  0
 25 26  1  0  0  0  0
M  END
$$$$
