TPV
 OpenBabel04041914163D

 74 77  0  0  1  0  0  0  0  0999 V2000
   13.5141   21.4120    5.9958 O   0  0  0  0  0  0  0  0  0  0  0  0
   12.4540   22.2115    6.0898 C   0  0  0  0  0  0  0  0  0  0  0  0
   12.5719   23.5189    5.3915 C   0  0  0  0  0  0  0  0  0  0  0  0
   13.7598   24.0171    5.0250 C   0  0  0  0  0  0  0  0  0  0  0  0
   14.9992   23.3647    5.5776 C   0  0  0  0  0  0  0  0  0  0  0  0
   14.8436   21.9262    5.9007 C   0  0  2  0  0  0  0  0  0  0  0  0
   11.4125   21.7241    6.5077 O   0  0  0  0  0  0  0  0  0  0  0  0
   14.0240   25.0717    4.3982 O   0  0  0  0  0  0  0  0  0  0  0  0
   15.7206   21.1985    4.8581 C   0  0  0  0  0  0  0  0  0  0  0  0
   14.8598   20.7798    3.7476 C   0  0  0  0  0  0  0  0  0  0  0  0
   15.3108   19.6015    2.9320 C   0  0  0  0  0  0  0  0  0  0  0  0
   15.0597   21.5314    7.3451 C   0  0  0  0  0  0  0  0  0  0  0  0
   16.4073   21.8819    7.8022 C   0  0  0  0  0  0  0  0  0  0  0  0
   17.1737   21.0516    8.7535 C   0  0  0  0  0  0  0  0  0  0  0  0
   16.6675   19.9984    9.5061 C   0  0  0  0  0  0  0  0  0  0  0  0
   17.5351   19.2912   10.3415 C   0  0  0  0  0  0  0  0  0  0  0  0
   18.9048   19.5960   10.3585 C   0  0  0  0  0  0  0  0  0  0  0  0
   19.4082   20.6021    9.5348 C   0  0  0  0  0  0  0  0  0  0  0  0
   18.5098   21.4488    8.9074 C   0  0  0  0  0  0  0  0  0  0  0  0
   11.2102   24.1779    5.1365 C   0  0  2  0  0  0  0  0  0  0  0  0
   10.6246   24.7103    3.7720 C   0  0  0  0  0  0  0  0  0  0  0  0
   10.6022   23.7856    2.5661 C   0  0  0  0  0  0  0  0  0  0  0  0
   10.8083   25.1297    6.2829 C   0  0  0  0  0  0  0  0  0  0  0  0
   11.7424   25.5712    7.2325 C   0  0  0  0  0  0  0  0  0  0  0  0
   11.3577   26.4793    8.2255 C   0  0  0  0  0  0  0  0  0  0  0  0
    9.9814   26.7467    8.4149 C   0  0  0  0  0  0  0  0  0  0  0  0
    8.9885   26.3324    7.5112 C   0  0  0  0  0  0  0  0  0  0  0  0
    7.5051   26.6796    7.7778 N   0  0  0  0  0  0  0  0  0  0  0  0
    9.4634   25.5989    6.3914 C   0  0  0  0  0  0  0  0  0  0  0  0
    6.9194   28.0840    6.9976 S   0  0  0  0  0  0  0  0  0  0  0  0
    7.9926   29.1108    7.3062 O   0  0  0  0  0  0  0  0  0  0  0  0
    5.6247   28.3266    7.2946 O   0  0  0  0  0  0  0  0  0  0  0  0
    7.1182   27.6682    5.2659 C   0  0  0  0  0  0  0  0  0  0  0  0
    8.2638   28.0787    4.6715 N   0  0  0  0  0  0  0  0  0  0  0  0
    8.3780   27.8093    3.3604 C   0  0  0  0  0  0  0  0  0  0  0  0
    7.4291   27.1074    2.6441 C   0  0  0  0  0  0  0  0  0  0  0  0
    6.2383   26.7469    3.2665 C   0  0  0  0  0  0  0  0  0  0  0  0
    6.0725   27.0404    4.6133 C   0  0  0  0  0  0  0  0  0  0  0  0
    7.7296   26.7805    1.2371 C   0  0  0  0  0  0  0  0  0  0  0  0
    8.3545   27.8384    0.6444 F   0  0  0  0  0  0  0  0  0  0  0  0
    6.5782   26.5122    0.5494 F   0  0  0  0  0  0  0  0  0  0  0  0
    8.5424   25.6934    1.1707 F   0  0  0  0  0  0  0  0  0  0  0  0
   15.2930   23.8329    6.5238 H   0  0  0  0  0  0  0  0  0  0  0  0
   15.8636   23.4243    4.8906 H   0  0  0  0  0  0  0  0  0  0  0  0
   16.1800   20.3316    5.2930 H   0  0  0  0  0  0  0  0  0  0  0  0
   16.4896   21.8431    4.3869 H   0  0  0  0  0  0  0  0  0  0  0  0
   14.7777   21.6462    3.0992 H   0  0  0  0  0  0  0  0  0  0  0  0
   13.9224   20.5109    4.2085 H   0  0  0  0  0  0  0  0  0  0  0  0
   14.5309   19.4344    2.1864 H   0  0  0  0  0  0  0  0  0  0  0  0
   15.4105   18.7116    3.5588 H   0  0  0  0  0  0  0  0  0  0  0  0
   16.2576   19.8117    2.4333 H   0  0  0  0  0  0  0  0  0  0  0  0
   14.8452   20.4612    7.3836 H   0  0  0  0  0  0  0  0  0  0  0  0
   14.3012   22.0689    7.9488 H   0  0  0  0  0  0  0  0  0  0  0  0
   16.3029   22.8479    8.2798 H   0  0  0  0  0  0  0  0  0  0  0  0
   17.0142   21.9407    6.9028 H   0  0  0  0  0  0  0  0  0  0  0  0
   15.6051   19.7639    9.4838 H   0  0  0  0  0  0  0  0  0  0  0  0
   17.1452   18.4817   10.9554 H   0  0  0  0  0  0  0  0  0  0  0  0
   19.5707   19.0624   11.0354 H   0  0  0  0  0  0  0  0  0  0  0  0
   20.4786   20.7224    9.3711 H   0  0  0  0  0  0  0  0  0  0  0  0
   18.8217   22.4385    8.5547 H   0  0  0  0  0  0  0  0  0  0  0  0
   10.5499   23.3256    5.2506 H   0  0  0  0  0  0  0  0  0  0  0  0
   11.1268   25.6282    3.4734 H   0  0  0  0  0  0  0  0  0  0  0  0
    9.5602   24.9472    3.9405 H   0  0  0  0  0  0  0  0  0  0  0  0
   10.1168   24.2920    1.7160 H   0  0  0  0  0  0  0  0  0  0  0  0
   10.0390   22.8726    2.7807 H   0  0  0  0  0  0  0  0  0  0  0  0
   11.6202   23.5362    2.2752 H   0  0  0  0  0  0  0  0  0  0  0  0
   12.7771   25.2240    7.1794 H   0  0  0  0  0  0  0  0  0  0  0  0
   12.1124   26.9720    8.8300 H   0  0  0  0  0  0  0  0  0  0  0  0
    9.6654   27.2725    9.3056 H   0  0  0  0  0  0  0  0  0  0  0  0
    6.8340   26.2349    8.4361 H   0  0  0  0  0  0  0  0  0  0  0  0
    8.7971   25.3596    5.5737 H   0  0  0  0  0  0  0  0  0  0  0  0
    9.2582   28.2091    2.8551 H   0  0  0  0  0  0  0  0  0  0  0  0
    5.4461   26.2662    2.6907 H   0  0  0  0  0  0  0  0  0  0  0  0
    5.1606   26.7901    5.1334 H   0  0  0  0  0  0  0  0  0  0  0  0
  1  6  1  0  0  0  0
  1  2  1  0  0  0  0
  2  7  2  0  0  0  0
  2  3  1  0  0  0  0
  3 20  1  0  0  0  0
  3  4  2  0  0  0  0
  4  8  1  0  0  0  0
  4  5  1  0  0  0  0
  5  6  1  0  0  0  0
  5 43  1  0  0  0  0
  5 44  1  0  0  0  0
  6 12  1  1  0  0  0
  6  9  1  0  0  0  0
  9 10  1  0  0  0  0
  9 45  1  0  0  0  0
  9 46  1  0  0  0  0
 10 11  1  0  0  0  0
 10 47  1  0  0  0  0
 10 48  1  0  0  0  0
 11 49  1  0  0  0  0
 11 50  1  0  0  0  0
 11 51  1  0  0  0  0
 12 13  1  0  0  0  0
 12 52  1  0  0  0  0
 12 53  1  0  0  0  0
 13 14  1  0  0  0  0
 13 54  1  0  0  0  0
 13 55  1  0  0  0  0
 14 19  2  0  0  0  0
 14 15  1  0  0  0  0
 15 16  2  0  0  0  0
 15 56  1  0  0  0  0
 16 17  1  0  0  0  0
 16 57  1  0  0  0  0
 17 18  2  0  0  0  0
 17 58  1  0  0  0  0
 18 19  1  0  0  0  0
 18 59  1  0  0  0  0
 19 60  1  0  0  0  0
 20 23  1  0  0  0  0
 20 21  1  0  0  0  0
 20 61  1  1  0  0  0
 21 22  1  0  0  0  0
 21 62  1  0  0  0  0
 21 63  1  0  0  0  0
 22 64  1  0  0  0  0
 22 65  1  0  0  0  0
 22 66  1  0  0  0  0
 23 29  2  0  0  0  0
 23 24  1  0  0  0  0
 24 25  2  0  0  0  0
 24 67  1  0  0  0  0
 25 26  1  0  0  0  0
 25 68  1  0  0  0  0
 26 27  2  0  0  0  0
 26 69  1  0  0  0  0
 27 29  1  0  0  0  0
 27 28  1  0  0  0  0
 28 30  1  0  0  0  0
 28 70  1  0  0  0  0
 29 71  1  0  0  0  0
 30 33  1  0  0  0  0
 30 32  2  0  0  0  0
 30 31  2  0  0  0  0
 33 38  2  0  0  0  0
 33 34  1  0  0  0  0
 34 35  2  0  0  0  0
 35 36  1  0  0  0  0
 35 72  1  0  0  0  0
 36 39  1  0  0  0  0
 36 37  2  0  0  0  0
 37 38  1  0  0  0  0
 37 73  1  0  0  0  0
 38 74  1  0  0  0  0
 39 42  1  0  0  0  0
 39 40  1  0  0  0  0
 39 41  1  0  0  0  0
M  END
$$$$
