TZ4
 OpenBabel04041916323D

 96103  0  0  0  0  0  0  0  0999 V2000
   40.9804   28.3884    9.7067 N   0  0  0  0  0  0  0  0  0  0  0  0
   40.7742   27.3564    8.7925 C   0  0  0  0  0  0  0  0  0  0  0  0
   41.7115   27.0686    7.8135 C   0  0  0  0  0  0  0  0  0  0  0  0
   41.4212   26.1430    6.8006 C   0  0  0  0  0  0  0  0  0  0  0  0
   40.1538   25.5083    6.6841 C   0  0  0  0  0  0  0  0  0  0  0  0
   39.1826   25.8528    7.6465 C   0  0  0  0  0  0  0  0  0  0  0  0
   39.5229   26.7676    8.6774 C   0  0  0  0  0  0  0  0  0  0  0  0
   37.8965   25.2750    7.5529 C   0  0  0  0  0  0  0  0  0  0  0  0
   36.8811   25.4860    8.6076 C   0  0  0  0  0  0  0  0  0  0  0  0
   36.7065   24.5129    9.6098 C   0  0  0  0  0  0  0  0  0  0  0  0
   35.7551   24.6806   10.6146 C   0  0  0  0  0  0  0  0  0  0  0  0
   34.9969   25.8462   10.6648 C   0  0  0  0  0  0  0  0  0  0  0  0
   35.1877   26.8429    9.7094 C   0  0  0  0  0  0  0  0  0  0  0  0
   36.1188   26.6647    8.6832 C   0  0  0  0  0  0  0  0  0  0  0  0
   39.8184   24.5621    5.6775 C   0  0  0  0  0  0  0  0  0  0  0  0
   40.7510   24.0939    4.7125 C   0  0  0  0  0  0  0  0  0  0  0  0
   40.4213   23.1283    3.7564 C   0  0  0  0  0  0  0  0  0  0  0  0
   39.1405   22.6155    3.6797 C   0  0  0  0  0  0  0  0  0  0  0  0
   38.8581   21.5196    2.8691 N   0  0  0  0  0  0  0  0  0  0  0  0
   38.5087   24.0217    5.6133 C   0  0  0  0  0  0  0  0  0  0  0  0
   38.2102   23.0514    4.6232 C   0  0  0  0  0  0  0  0  0  0  0  0
   37.5604   24.4376    6.5283 N   0  3  0  0  0  0  0  0  0  0  0  0
   36.1225   24.0821    6.2913 C   0  0  0  0  0  0  0  0  0  0  0  0
   35.7538   22.7246    6.8807 C   0  0  0  0  0  0  0  0  0  0  0  0
   34.3738   22.3177    6.3737 C   0  0  0  0  0  0  0  0  0  0  0  0
   33.8446   21.0375    7.0195 C   0  0  0  0  0  0  0  0  0  0  0  0
   33.3618   21.2451    8.4528 C   0  0  0  0  0  0  0  0  0  0  0  0
   31.9621   21.8687    8.5159 C   0  0  0  0  0  0  0  0  0  0  0  0
   31.5266   21.9742    9.9280 C   0  0  0  0  0  0  0  0  0  0  0  0
   31.1455   20.8601   10.6247 N   0  0  0  0  0  0  0  0  0  0  0  0
   30.9272   21.2147   11.8800 N   0  0  0  0  0  0  0  0  0  0  0  0
   31.1448   22.5359   11.9728 N   0  3  0  0  0  0  0  0  0  0  0  0
   31.5140   23.0634   10.7696 C   0  0  0  0  0  0  0  0  0  0  0  0
   31.1197   23.2260   13.2425 C   0  0  0  0  0  0  0  0  0  0  0  0
   30.5251   22.4310   14.4088 C   0  0  0  0  0  0  0  0  0  0  0  0
   29.1249   22.7797   14.6809 N   0  0  0  0  0  0  0  0  0  0  0  0
   28.0341   22.0669   14.1741 C   0  0  0  0  0  0  0  0  0  0  0  0
   27.0890   22.7354   13.3352 C   0  0  0  0  0  0  0  0  0  0  0  0
   27.2414   24.0513   12.8327 C   0  0  0  0  0  0  0  0  0  0  0  0
   25.8945   22.0645   12.9945 C   0  0  0  0  0  0  0  0  0  0  0  0
   24.8768   22.7060   12.2683 C   0  0  0  0  0  0  0  0  0  0  0  0
   25.0445   24.0158   11.8283 C   0  0  0  0  0  0  0  0  0  0  0  0
   26.2350   24.6799   12.0917 C   0  0  0  0  0  0  0  0  0  0  0  0
   25.7127   20.7989   13.3991 N   0  3  0  0  0  0  0  0  0  0  0  0
   26.6012   20.1075   14.1298 C   0  0  0  0  0  0  0  0  0  0  0  0
   26.1841   18.7333   14.5631 C   0  0  0  0  0  0  0  0  0  0  0  0
   27.7875   20.7242   14.5528 C   0  0  0  0  0  0  0  0  0  0  0  0
   28.7396   19.9544   15.4474 C   0  0  0  0  0  0  0  0  0  0  0  0
   28.2261   18.6249   16.0083 C   0  0  0  0  0  0  0  0  0  0  0  0
   27.3475   17.8693   15.0239 C   0  0  0  0  0  0  0  0  0  0  0  0
   41.9552   28.5854    9.9155 H   0  0  0  0  0  0  0  0  0  0  0  0
   40.4142   28.3595   10.5473 H   0  0  0  0  0  0  0  0  0  0  0  0
   42.6851   27.5551    7.8262 H   0  0  0  0  0  0  0  0  0  0  0  0
   42.2163   25.9580    6.0842 H   0  0  0  0  0  0  0  0  0  0  0  0
   38.7774   27.0633    9.4207 H   0  0  0  0  0  0  0  0  0  0  0  0
   37.3148   23.6084    9.6149 H   0  0  0  0  0  0  0  0  0  0  0  0
   35.6234   23.9088   11.3704 H   0  0  0  0  0  0  0  0  0  0  0  0
   34.2761   25.9911   11.4662 H   0  0  0  0  0  0  0  0  0  0  0  0
   34.6215   27.7710    9.7779 H   0  0  0  0  0  0  0  0  0  0  0  0
   36.2614   27.4713    7.9640 H   0  0  0  0  0  0  0  0  0  0  0  0
   41.7775   24.4487    4.7006 H   0  0  0  0  0  0  0  0  0  0  0  0
   41.1988   22.7726    3.0751 H   0  0  0  0  0  0  0  0  0  0  0  0
   37.8880   21.3633    2.6149 H   0  0  0  0  0  0  0  0  0  0  0  0
   39.4785   21.3881    2.0730 H   0  0  0  0  0  0  0  0  0  0  0  0
   37.2412   22.5669    4.5705 H   0  0  0  0  0  0  0  0  0  0  0  0
   35.9448   24.1207    5.2106 H   0  0  0  0  0  0  0  0  0  0  0  0
   35.4764   24.8711    6.6877 H   0  0  0  0  0  0  0  0  0  0  0  0
   35.7530   22.7718    7.9688 H   0  0  0  0  0  0  0  0  0  0  0  0
   36.4893   21.9554    6.6215 H   0  0  0  0  0  0  0  0  0  0  0  0
   34.4333   22.1528    5.2885 H   0  0  0  0  0  0  0  0  0  0  0  0
   33.6598   23.1349    6.5267 H   0  0  0  0  0  0  0  0  0  0  0  0
   34.6311   20.2728    7.0113 H   0  0  0  0  0  0  0  0  0  0  0  0
   33.0177   20.6425    6.4149 H   0  0  0  0  0  0  0  0  0  0  0  0
   34.0669   21.8633    9.0205 H   0  0  0  0  0  0  0  0  0  0  0  0
   33.3443   20.2696    8.9561 H   0  0  0  0  0  0  0  0  0  0  0  0
   31.2474   21.2475    7.9649 H   0  0  0  0  0  0  0  0  0  0  0  0
   31.9554   22.8584    8.0528 H   0  0  0  0  0  0  0  0  0  0  0  0
   31.7729   24.1019   10.6309 H   0  0  0  0  0  0  0  0  0  0  0  0
   30.5864   24.1694   13.0821 H   0  0  0  0  0  0  0  0  0  0  0  0
   32.1671   23.4660   13.4643 H   0  0  0  0  0  0  0  0  0  0  0  0
   31.0782   22.7186   15.3108 H   0  0  0  0  0  0  0  0  0  0  0  0
   30.6900   21.3598   14.2992 H   0  0  0  0  0  0  0  0  0  0  0  0
   28.9702   23.7804   14.7784 H   0  0  0  0  0  0  0  0  0  0  0  0
   28.1535   24.6153   13.0100 H   0  0  0  0  0  0  0  0  0  0  0  0
   23.9367   22.2053   12.0481 H   0  0  0  0  0  0  0  0  0  0  0  0
   24.2505   24.5202   11.2789 H   0  0  0  0  0  0  0  0  0  0  0  0
   26.3783   25.6984   11.7323 H   0  0  0  0  0  0  0  0  0  0  0  0
   25.6637   18.2281   13.7411 H   0  0  0  0  0  0  0  0  0  0  0  0
   25.4632   18.8473   15.3822 H   0  0  0  0  0  0  0  0  0  0  0  0
   29.0241   20.5847   16.2990 H   0  0  0  0  0  0  0  0  0  0  0  0
   29.6408   19.7264   14.8714 H   0  0  0  0  0  0  0  0  0  0  0  0
   27.6652   18.8071   16.9321 H   0  0  0  0  0  0  0  0  0  0  0  0
   29.0853   18.0001   16.2841 H   0  0  0  0  0  0  0  0  0  0  0  0
   27.9423   17.5479   14.1608 H   0  0  0  0  0  0  0  0  0  0  0  0
   26.9575   16.9612   15.4999 H   0  0  0  0  0  0  0  0  0  0  0  0
   24.8397   20.3388   13.1459 H   0  0  0  0  0  0  0  0  0  0  0  0
  1  2  1  0  0  0  0
  1 51  1  0  0  0  0
  1 52  1  0  0  0  0
  2  3  2  0  0  0  0
  2  7  1  0  0  0  0
  3  4  1  0  0  0  0
  3 53  1  0  0  0  0
  4  5  2  0  0  0  0
  4 54  1  0  0  0  0
  5  6  1  0  0  0  0
  5 15  1  0  0  0  0
  6  7  2  0  0  0  0
  6  8  1  0  0  0  0
  7 55  1  0  0  0  0
  8  9  1  0  0  0  0
  8 22  2  0  0  0  0
  9 10  2  0  0  0  0
  9 14  1  0  0  0  0
 10 11  1  0  0  0  0
 10 56  1  0  0  0  0
 11 12  2  0  0  0  0
 11 57  1  0  0  0  0
 12 13  1  0  0  0  0
 12 58  1  0  0  0  0
 13 14  2  0  0  0  0
 13 59  1  0  0  0  0
 14 60  1  0  0  0  0
 15 16  2  0  0  0  0
 15 20  1  0  0  0  0
 16 17  1  0  0  0  0
 16 61  1  0  0  0  0
 17 18  2  0  0  0  0
 17 62  1  0  0  0  0
 18 19  1  0  0  0  0
 18 21  1  0  0  0  0
 19 63  1  0  0  0  0
 19 64  1  0  0  0  0
 20 21  2  0  0  0  0
 20 22  1  0  0  0  0
 21 65  1  0  0  0  0
 22 23  1  0  0  0  0
 23 24  1  0  0  0  0
 23 66  1  0  0  0  0
 23 67  1  0  0  0  0
 24 25  1  0  0  0  0
 24 68  1  0  0  0  0
 24 69  1  0  0  0  0
 25 26  1  0  0  0  0
 25 70  1  0  0  0  0
 25 71  1  0  0  0  0
 26 27  1  0  0  0  0
 26 72  1  0  0  0  0
 26 73  1  0  0  0  0
 27 28  1  0  0  0  0
 27 74  1  0  0  0  0
 27 75  1  0  0  0  0
 28 29  1  0  0  0  0
 28 76  1  0  0  0  0
 28 77  1  0  0  0  0
 29 30  1  0  0  0  0
 29 33  2  0  0  0  0
 30 31  1  0  0  0  0
 31 32  2  0  0  0  0
 32 33  1  0  0  0  0
 32 34  1  0  0  0  0
 33 78  1  0  0  0  0
 34 35  1  0  0  0  0
 34 79  1  0  0  0  0
 34 80  1  0  0  0  0
 35 36  1  0  0  0  0
 35 81  1  0  0  0  0
 35 82  1  0  0  0  0
 36 37  1  0  0  0  0
 36 83  1  0  0  0  0
 37 38  2  0  0  0  0
 37 47  1  0  0  0  0
 38 39  1  0  0  0  0
 38 40  1  0  0  0  0
 39 43  2  0  0  0  0
 39 84  1  0  0  0  0
 40 41  1  0  0  0  0
 40 44  2  0  0  0  0
 41 42  2  0  0  0  0
 41 85  1  0  0  0  0
 42 43  1  0  0  0  0
 42 86  1  0  0  0  0
 43 87  1  0  0  0  0
 44 45  1  0  0  0  0
 44 96  1  0  0  0  0
 45 46  1  0  0  0  0
 45 47  2  0  0  0  0
 46 50  1  0  0  0  0
 46 88  1  0  0  0  0
 46 89  1  0  0  0  0
 47 48  1  0  0  0  0
 48 49  1  0  0  0  0
 48 90  1  0  0  0  0
 48 91  1  0  0  0  0
 49 50  1  0  0  0  0
 49 92  1  0  0  0  0
 49 93  1  0  0  0  0
 50 94  1  0  0  0  0
 50 95  1  0  0  0  0
M  CHG  3  22   1  32   1  44   1
M  END
$$$$
