TZD
 OpenBabel04041916453D

 42 43  0  0  0  0  0  0  0  0999 V2000
   26.8396  -36.6412    7.9638 N   0  0  0  0  0  0  0  0  0  0  0  0
   27.5418  -37.4456    8.7671 C   0  0  0  0  0  0  0  0  0  0  0  0
   27.5230  -38.9181    8.4552 C   0  0  0  0  0  0  0  0  0  0  0  0
   28.3036  -37.0300    9.7863 N   0  0  0  0  0  0  0  0  0  0  0  0
   28.3356  -35.7063   10.0606 C   0  0  0  0  0  0  0  0  0  0  0  0
   29.2961  -35.3174   10.9815 N   0  0  0  0  0  0  0  0  0  0  0  0
   27.6064  -34.7880    9.3197 C   0  0  0  0  0  0  0  0  0  0  0  0
   26.8793  -35.3378    8.2725 C   0  0  0  0  0  0  0  0  0  0  0  0
   27.5832  -33.3021    9.5471 C   0  0  0  0  0  0  0  0  0  0  0  0
   26.9120  -32.8674   10.7638 N   0  3  0  0  0  0  0  0  0  0  0  0
   27.6614  -32.5578   11.8920 C   0  0  0  0  0  0  0  0  0  0  0  0
   28.8752  -32.6671   12.0042 O   0  0  0  0  0  0  0  0  0  0  0  0
   26.5916  -32.0210   13.1580 S   0  0  0  0  0  0  0  0  0  0  0  0
   25.1767  -32.3096   12.1624 C   0  0  0  0  0  0  0  0  0  0  0  0
   25.5288  -32.7118   10.9245 C   0  0  0  0  0  0  0  0  0  0  0  0
   24.5998  -32.9604    9.7830 C   0  0  0  0  0  0  0  0  0  0  0  0
   23.7950  -32.0761   12.7285 C   0  0  0  0  0  0  0  0  0  0  0  0
   23.5187  -32.7668   14.0676 C   0  0  0  0  0  0  0  0  0  0  0  0
   22.1152  -32.7932   14.2546 O   0  0  0  0  0  0  0  0  0  0  0  0
   21.5436  -33.7672   15.4354 P   0  0  1  0  0  0  0  0  0  0  0  0
   22.2300  -33.2124   16.7624 O   0  0  0  0  0  0  0  0  0  0  0  0
   20.0281  -33.6767   15.4088 O   0  0  0  0  0  0  0  0  0  0  0  0
   22.1125  -35.1535   15.1148 O   0  0  0  0  0  0  0  0  0  0  0  0
   22.3231  -31.8415   17.6053 P   0  0  0  0  0  0  0  0  0  0  0  0
   22.4136  -32.3065   19.0637 O   0  0  0  0  0  0  0  0  0  0  0  0
   23.6148  -31.1542   17.1510 O   0  0  0  0  0  0  0  0  0  0  0  0
   21.0781  -31.0138   17.3214 O   0  0  0  0  0  0  0  0  0  0  0  0
   26.8899  -39.1169    7.5860 H   0  0  0  0  0  0  0  0  0  0  0  0
   27.1401  -39.4801    9.3054 H   0  0  0  0  0  0  0  0  0  0  0  0
   28.5381  -39.2573    8.2220 H   0  0  0  0  0  0  0  0  0  0  0  0
   29.0840  -34.4972   11.5458 H   0  0  0  0  0  0  0  0  0  0  0  0
   29.5462  -36.1140   11.5557 H   0  0  0  0  0  0  0  0  0  0  0  0
   26.2915  -34.7029    7.6116 H   0  0  0  0  0  0  0  0  0  0  0  0
   27.1167  -32.7906    8.6984 H   0  0  0  0  0  0  0  0  0  0  0  0
   28.6208  -32.9413    9.5546 H   0  0  0  0  0  0  0  0  0  0  0  0
   23.5513  -32.7584   10.0240 H   0  0  0  0  0  0  0  0  0  0  0  0
   24.6524  -34.0027    9.4544 H   0  0  0  0  0  0  0  0  0  0  0  0
   24.8486  -32.3113    8.9369 H   0  0  0  0  0  0  0  0  0  0  0  0
   23.0381  -32.4112   12.0177 H   0  0  0  0  0  0  0  0  0  0  0  0
   23.6213  -30.9979   12.8355 H   0  0  0  0  0  0  0  0  0  0  0  0
   23.9846  -32.2121   14.8836 H   0  0  0  0  0  0  0  0  0  0  0  0
   23.9208  -33.7845   14.0562 H   0  0  0  0  0  0  0  0  0  0  0  0
  1  2  2  0  0  0  0
  1  8  1  0  0  0  0
  2  3  1  0  0  0  0
  2  4  1  0  0  0  0
  3 28  1  0  0  0  0
  3 29  1  0  0  0  0
  3 30  1  0  0  0  0
  4  5  2  0  0  0  0
  5  6  1  0  0  0  0
  5  7  1  0  0  0  0
  6 31  1  0  0  0  0
  6 32  1  0  0  0  0
  7  8  2  0  0  0  0
  7  9  1  0  0  0  0
  8 33  1  0  0  0  0
  9 10  1  0  0  0  0
  9 34  1  0  0  0  0
  9 35  1  0  0  0  0
 10 11  1  0  0  0  0
 10 15  1  0  0  0  0
 11 12  2  0  0  0  0
 11 13  1  0  0  0  0
 13 14  1  0  0  0  0
 14 15  2  0  0  0  0
 14 17  1  0  0  0  0
 15 16  1  0  0  0  0
 16 36  1  0  0  0  0
 16 37  1  0  0  0  0
 16 38  1  0  0  0  0
 17 18  1  0  0  0  0
 17 39  1  0  0  0  0
 17 40  1  0  0  0  0
 18 19  1  0  0  0  0
 18 41  1  0  0  0  0
 18 42  1  0  0  0  0
 20 19  1  6  0  0  0
 20 21  1  0  0  0  0
 20 22  2  0  0  0  0
 20 23  1  0  0  0  0
 21 24  1  0  0  0  0
 24 25  2  0  0  0  0
 24 26  1  0  0  0  0
 24 27  1  0  0  0  0
M  CHG  1  10   1
M  END
$$$$
