U2P
 OpenBabel04041916013D

 32 33  0  0  1  0  0  0  0  0999 V2000
   39.8128    2.7178   22.5821 O   0  0  0  0  0  0  0  0  0  0  0  0
   40.3049    1.4657   23.0706 C   0  0  0  0  0  0  0  0  0  0  0  0
   39.1756    0.5515   23.5518 C   0  0  1  0  0  0  0  0  0  0  0  0
   38.4365    1.2226   24.5977 O   0  0  0  0  0  0  0  0  0  0  0  0
   37.0345    0.8662   24.4196 C   0  0  1  0  0  0  0  0  0  0  0  0
   36.2817    2.1157   24.1944 N   0  3  0  0  0  0  0  0  0  0  0  0
   36.7463    3.1025   23.3478 C   0  0  0  0  0  0  0  0  0  0  0  0
   36.1166    4.2623   23.1553 C   0  0  0  0  0  0  0  0  0  0  0  0
   34.8652    4.5002   23.8819 C   0  0  0  0  0  0  0  0  0  0  0  0
   34.2732    5.5725   23.7753 O   0  0  0  0  0  0  0  0  0  0  0  0
   34.4441    3.4714   24.6681 N   0  3  0  0  0  0  0  0  0  0  0  0
   35.0890    2.2752   24.8842 C   0  0  0  0  0  0  0  0  0  0  0  0
   34.5908    1.4962   25.6728 O   0  0  0  0  0  0  0  0  0  0  0  0
   36.9440   -0.1899   23.2962 C   0  0  2  0  0  0  0  0  0  0  0  0
   37.0851   -1.4572   23.9176 O   0  0  0  0  0  0  0  0  0  0  0  0
   36.4419   -2.7860   23.2154 P   0  0  0  0  0  0  0  0  0  0  0  0
   37.1765   -2.8275   21.8961 O   0  0  0  0  0  0  0  0  0  0  0  0
   36.7462   -3.8690   24.1939 O   0  0  0  0  0  0  0  0  0  0  0  0
   34.9796   -2.4522   23.0524 O   0  0  0  0  0  0  0  0  0  0  0  0
   38.1721    0.1744   22.4658 C   0  0  2  0  0  0  0  0  0  0  0  0
   38.7137   -0.7629   21.5506 O   0  0  0  0  0  0  0  0  0  0  0  0
   40.5764    3.2560   22.3302 H   0  0  0  0  0  0  0  0  0  0  0  0
   40.9766    1.6895   23.9071 H   0  0  0  0  0  0  0  0  0  0  0  0
   40.8783    0.9922   22.2696 H   0  0  0  0  0  0  0  0  0  0  0  0
   39.6320   -0.3496   23.9778 H   0  0  0  0  0  0  0  0  0  0  0  0
   36.7166    0.4359   25.3776 H   0  0  0  0  0  0  0  0  0  0  0  0
   37.6701    2.9224   22.8334 H   0  0  0  0  0  0  0  0  0  0  0  0
   36.4944    5.0362   22.5061 H   0  0  0  0  0  0  0  0  0  0  0  0
   33.5941    3.5962   25.1916 H   0  0  0  0  0  0  0  0  0  0  0  0
   36.0020   -0.1259   22.7412 H   0  0  0  0  0  0  0  0  0  0  0  0
   37.9297    1.0389   21.8423 H   0  0  0  0  0  0  0  0  0  0  0  0
   37.9639   -1.3740   21.2993 H   0  0  0  0  0  0  0  0  0  0  0  0
  1  2  1  0  0  0  0
  1 22  1  0  0  0  0
  2  3  1  0  0  0  0
  2 23  1  0  0  0  0
  2 24  1  0  0  0  0
  3  4  1  0  0  0  0
  3 20  1  0  0  0  0
  3 25  1  1  0  0  0
  4  5  1  0  0  0  0
  5  6  1  0  0  0  0
  5 14  1  0  0  0  0
  5 26  1  1  0  0  0
  6  7  1  0  0  0  0
  6 12  1  0  0  0  0
  7  8  2  0  0  0  0
  7 27  1  0  0  0  0
  8  9  1  0  0  0  0
  8 28  1  0  0  0  0
  9 10  2  0  0  0  0
  9 11  1  0  0  0  0
 11 12  1  0  0  0  0
 11 29  1  0  0  0  0
 12 13  2  0  0  0  0
 14 15  1  0  0  0  0
 14 20  1  0  0  0  0
 14 30  1  6  0  0  0
 15 16  1  0  0  0  0
 16 17  2  0  0  0  0
 16 18  1  0  0  0  0
 16 19  1  0  0  0  0
 20 21  1  0  0  0  0
 20 31  1  6  0  0  0
 21 32  1  0  0  0  0
M  CHG  2   6   1  11   1
M  END
$$$$
