U55
 OpenBabel04041915123D

 29 30  0  0  0  0  0  0  0  0999 V2000
   14.1877    8.6997   24.6160 N   0  0  0  0  0  0  0  0  0  0  0  0
   13.3827    9.5667   23.9084 C   0  0  0  0  0  0  0  0  0  0  0  0
   13.6845    9.8081   22.6284 N   0  0  0  0  0  0  0  0  0  0  0  0
   12.8477   10.6361   21.9647 C   0  0  0  0  0  0  0  0  0  0  0  0
   11.8120   11.3003   22.4804 N   0  0  0  0  0  0  0  0  0  0  0  0
   12.2937   10.1507   24.5000 C   0  0  0  0  0  0  0  0  0  0  0  0
   11.5410   11.0556   23.7626 C   0  0  0  0  0  0  0  0  0  0  0  0
   10.4854   11.7847   24.3122 N   0  0  0  0  0  0  0  0  0  0  0  0
    9.6303   11.5034   25.3795 C   0  0  0  0  0  0  0  0  0  0  0  0
    8.8245   12.5257   25.8824 C   0  0  0  0  0  0  0  0  0  0  0  0
    8.0435   12.3067   27.0156 C   0  0  0  0  0  0  0  0  0  0  0  0
    9.6090   10.2550   26.0156 C   0  0  0  0  0  0  0  0  0  0  0  0
    8.8559   10.0282   27.1652 C   0  0  0  0  0  0  0  0  0  0  0  0
    8.0496   11.0536   27.6428 C   0  0  0  0  0  0  0  0  0  0  0  0
    6.7819   10.7117   28.8255 S   0  0  0  0  0  0  0  0  0  0  0  0
    5.9592    9.6765   28.2836 O   0  0  0  0  0  0  0  0  0  0  0  0
    6.2293   11.9965   29.2352 O   0  0  0  0  0  0  0  0  0  0  0  0
    7.4901   10.0951   30.1992 N   0  0  0  0  0  0  0  0  0  0  0  0
   14.0191    8.4716   25.5825 H   0  0  0  0  0  0  0  0  0  0  0  0
   14.9832    8.2924   24.1429 H   0  0  0  0  0  0  0  0  0  0  0  0
   13.0178   10.7569   20.9008 H   0  0  0  0  0  0  0  0  0  0  0  0
   12.0707    9.9284   25.5350 H   0  0  0  0  0  0  0  0  0  0  0  0
   10.2445   12.5863   23.7453 H   0  0  0  0  0  0  0  0  0  0  0  0
    8.7730   13.4877   25.3753 H   0  0  0  0  0  0  0  0  0  0  0  0
    7.3963   13.1056   27.3767 H   0  0  0  0  0  0  0  0  0  0  0  0
   10.1418    9.4114   25.5867 H   0  0  0  0  0  0  0  0  0  0  0  0
    8.8773    9.0448   27.6227 H   0  0  0  0  0  0  0  0  0  0  0  0
    6.8450    9.8846   30.9477 H   0  0  0  0  0  0  0  0  0  0  0  0
    8.4836   10.0013   30.3154 H   0  0  0  0  0  0  0  0  0  0  0  0
  1  2  1  0  0  0  0
  1 19  1  0  0  0  0
  1 20  1  0  0  0  0
  2  3  2  0  0  0  0
  2  6  1  0  0  0  0
  3  4  1  0  0  0  0
  4  5  2  0  0  0  0
  4 21  1  0  0  0  0
  5  7  1  0  0  0  0
  6  7  2  0  0  0  0
  6 22  1  0  0  0  0
  7  8  1  0  0  0  0
  8  9  1  0  0  0  0
  8 23  1  0  0  0  0
  9 10  2  0  0  0  0
  9 12  1  0  0  0  0
 10 11  1  0  0  0  0
 10 24  1  0  0  0  0
 11 14  2  0  0  0  0
 11 25  1  0  0  0  0
 12 13  2  0  0  0  0
 12 26  1  0  0  0  0
 13 14  1  0  0  0  0
 13 27  1  0  0  0  0
 14 15  1  0  0  0  0
 15 16  2  0  0  0  0
 15 17  2  0  0  0  0
 15 18  1  0  0  0  0
 18 28  1  0  0  0  0
 18 29  1  0  0  0  0
M  END
$$$$
