UDP
 OpenBabel04041916073D

 36 37  0  0  1  0  0  0  0  0999 V2000
    2.8189   12.2698   43.3062 N   0  3  0  0  0  0  0  0  0  0  0  0
    2.8794   13.1986   42.2830 C   0  0  0  0  0  0  0  0  0  0  0  0
    2.5524   14.4829   42.6178 N   0  3  0  0  0  0  0  0  0  0  0  0
    2.0711   14.8981   43.8302 C   0  0  0  0  0  0  0  0  0  0  0  0
    2.0610   13.8835   44.8890 C   0  0  0  0  0  0  0  0  0  0  0  0
    2.4286   12.6362   44.5845 C   0  0  0  0  0  0  0  0  0  0  0  0
    3.1725   12.9215   41.1155 O   0  0  0  0  0  0  0  0  0  0  0  0
    1.6306   16.0308   44.0051 O   0  0  0  0  0  0  0  0  0  0  0  0
    3.1912   10.8841   42.9973 C   0  0  1  0  0  0  0  0  0  0  0  0
    4.6856   10.6552   42.7161 C   0  0  2  0  0  0  0  0  0  0  0  0
    4.8431    9.5883   41.7574 O   0  0  0  0  0  0  0  0  0  0  0  0
    5.1775   10.2873   44.0984 C   0  0  1  0  0  0  0  0  0  0  0  0
    4.0269    9.4617   44.6651 C   0  0  2  0  0  0  0  0  0  0  0  0
    2.8054    9.9898   44.0602 O   0  0  0  0  0  0  0  0  0  0  0  0
    6.4192    9.5963   44.1032 O   0  0  0  0  0  0  0  0  0  0  0  0
    3.9039    9.4381   46.2020 C   0  0  0  0  0  0  0  0  0  0  0  0
    4.0788   10.7215   46.7727 O   0  0  0  0  0  0  0  0  0  0  0  0
    5.5550   11.0950   47.4208 P   0  0  1  0  0  0  0  0  0  0  0  0
    6.5432   10.4242   46.4787 O   0  0  0  0  0  0  0  0  0  0  0  0
    5.4725   12.6127   47.4635 O   0  0  0  0  0  0  0  0  0  0  0  0
    5.3784   10.3730   48.8316 O   0  0  0  0  0  0  0  0  0  0  0  0
    6.3960    9.9749   50.0294 P   0  0  0  0  0  0  0  0  0  0  0  0
    7.1960    8.7766   49.5343 O   0  0  0  0  0  0  0  0  0  0  0  0
    5.4605    9.5889   51.1811 O   0  0  0  0  0  0  0  0  0  0  0  0
    7.2313   11.2069   50.3512 O   0  0  0  0  0  0  0  0  0  0  0  0
    2.5671   15.1675   41.8836 H   0  0  0  0  0  0  0  0  0  0  0  0
    1.7599   14.1677   45.8899 H   0  0  0  0  0  0  0  0  0  0  0  0
    2.4219   11.8789   45.3560 H   0  0  0  0  0  0  0  0  0  0  0  0
    2.6067   10.5929   42.1147 H   0  0  0  0  0  0  0  0  0  0  0  0
    5.2180   11.5275   42.3168 H   0  0  0  0  0  0  0  0  0  0  0  0
    4.6159    9.9715   40.8961 H   0  0  0  0  0  0  0  0  0  0  0  0
    5.2952   11.2382   44.6295 H   0  0  0  0  0  0  0  0  0  0  0  0
    4.0992    8.4207   44.3250 H   0  0  0  0  0  0  0  0  0  0  0  0
    6.7169    9.7261   45.0574 H   0  0  0  0  0  0  0  0  0  0  0  0
    4.5947    8.7176   46.6486 H   0  0  0  0  0  0  0  0  0  0  0  0
    2.8854    9.1259   46.4627 H   0  0  0  0  0  0  0  0  0  0  0  0
  1  2  1  0  0  0  0
  1  6  1  0  0  0  0
  1  9  1  0  0  0  0
  2  3  1  0  0  0  0
  2  7  2  0  0  0  0
  3  4  1  0  0  0  0
  3 26  1  0  0  0  0
  4  5  1  0  0  0  0
  4  8  2  0  0  0  0
  5  6  2  0  0  0  0
  5 27  1  0  0  0  0
  6 28  1  0  0  0  0
  9 10  1  0  0  0  0
  9 14  1  0  0  0  0
  9 29  1  6  0  0  0
 10 11  1  0  0  0  0
 10 12  1  0  0  0  0
 10 30  1  6  0  0  0
 11 31  1  0  0  0  0
 12 13  1  0  0  0  0
 12 15  1  0  0  0  0
 12 32  1  1  0  0  0
 13 14  1  0  0  0  0
 13 16  1  0  0  0  0
 13 33  1  6  0  0  0
 15 34  1  0  0  0  0
 16 17  1  0  0  0  0
 16 35  1  0  0  0  0
 16 36  1  0  0  0  0
 18 17  1  6  0  0  0
 18 19  2  0  0  0  0
 18 20  1  0  0  0  0
 18 21  1  0  0  0  0
 21 22  1  0  0  0  0
 22 23  2  0  0  0  0
 22 24  1  0  0  0  0
 22 25  1  0  0  0  0
M  CHG  2   1   1   3   1
M  END
$$$$
