UI3
 OpenBabel04041916513D

 45 47  0  0  1  0  0  0  0  0999 V2000
   22.9041   15.2990   32.9733 C   0  0  0  0  0  0  0  0  0  0  0  0
   21.6594   15.5069   32.3652 C   0  0  0  0  0  0  0  0  0  0  0  0
   20.8492   16.5875   32.7264 C   0  0  0  0  0  0  0  0  0  0  0  0
   21.2993   17.5059   33.6891 C   0  0  0  0  0  0  0  0  0  0  0  0
   22.5940   17.3154   34.2756 C   0  0  0  0  0  0  0  0  0  0  0  0
   23.3749   16.1940   33.9327 C   0  0  0  0  0  0  0  0  0  0  0  0
   19.5823   16.7630   32.1469 C   0  0  0  0  0  0  0  0  0  0  0  0
   18.7507   17.8255   32.5273 C   0  0  0  0  0  0  0  0  0  0  0  0
   19.1470   18.7299   33.5134 C   0  0  0  0  0  0  0  0  0  0  0  0
   20.4109   18.5428   34.0633 C   0  0  0  0  0  0  0  0  0  0  0  0
   18.2584   19.8406   33.9494 C   0  0  0  0  0  0  0  0  0  0  0  0
   16.9685   19.7713   33.7125 N   0  0  0  0  0  0  0  0  0  0  0  0
   18.7517   20.8951   34.5866 N   0  0  0  0  0  0  0  0  0  0  0  0
   24.5242   16.0389   34.6456 O   0  0  0  0  0  0  0  0  0  0  0  0
   25.5184   15.1157   34.2341 C   0  0  0  0  0  0  0  0  0  0  0  0
   23.0082   18.2778   35.3665 C   0  0  1  0  0  0  0  0  0  0  0  0
   23.8865   17.8658   36.5287 C   0  0  0  0  0  0  0  0  0  0  0  0
   23.9385   19.1555   37.2456 N   0  0  0  0  0  0  0  0  0  0  0  0
   24.1876   20.1589   36.2359 N   0  0  0  0  0  0  0  0  0  0  0  0
   23.3976   19.7344   35.0579 C   0  0  0  0  0  0  0  0  0  0  0  0
   25.0184   19.2382   38.5808 S   0  0  0  0  0  0  0  0  0  0  0  0
   24.7879   20.5157   39.2259 O   0  0  0  0  0  0  0  0  0  0  0  0
   26.3348   18.8422   38.1253 O   0  0  0  0  0  0  0  0  0  0  0  0
   24.4180   17.9406   39.6922 C   0  0  0  0  0  0  0  0  0  0  0  0
   23.4694   14.4177   32.6834 H   0  0  0  0  0  0  0  0  0  0  0  0
   21.3096   14.8026   31.6131 H   0  0  0  0  0  0  0  0  0  0  0  0
   19.2321   16.0656   31.3868 H   0  0  0  0  0  0  0  0  0  0  0  0
   17.7857   17.8824   32.0378 H   0  0  0  0  0  0  0  0  0  0  0  0
   20.6899   19.2173   34.8648 H   0  0  0  0  0  0  0  0  0  0  0  0
   16.3404   20.5063   33.9736 H   0  0  0  0  0  0  0  0  0  0  0  0
   19.7142   21.0024   34.7651 H   0  0  0  0  0  0  0  0  0  0  0  0
   18.1534   21.6401   34.9130 H   0  0  0  0  0  0  0  0  0  0  0  0
   26.3553   15.2019   34.9372 H   0  0  0  0  0  0  0  0  0  0  0  0
   25.8915   15.3721   33.2394 H   0  0  0  0  0  0  0  0  0  0  0  0
   25.1530   14.0864   34.2836 H   0  0  0  0  0  0  0  0  0  0  0  0
   22.0696   18.3753   35.9200 H   0  0  0  0  0  0  0  0  0  0  0  0
   24.8961   17.5475   36.2617 H   0  0  0  0  0  0  0  0  0  0  0  0
   23.3556   17.1121   37.1122 H   0  0  0  0  0  0  0  0  0  0  0  0
   23.9105   21.0887   36.5624 H   0  0  0  0  0  0  0  0  0  0  0  0
   22.4755   20.3298   35.0534 H   0  0  0  0  0  0  0  0  0  0  0  0
   23.8897   19.9192   34.0946 H   0  0  0  0  0  0  0  0  0  0  0  0
   25.0488   17.9463   40.5885 H   0  0  0  0  0  0  0  0  0  0  0  0
   24.5161   16.9616   39.2200 H   0  0  0  0  0  0  0  0  0  0  0  0
   23.3859   18.1278   39.9944 H   0  0  0  0  0  0  0  0  0  0  0  0
   16.5556   18.9708   33.2421 H   0  0  0  0  0  0  0  0  0  0  0  0
  1  2  2  0  0  0  0
  1  6  1  0  0  0  0
  1 25  1  0  0  0  0
  2  3  1  0  0  0  0
  2 26  1  0  0  0  0
  3  4  2  0  0  0  0
  3  7  1  0  0  0  0
  4  5  1  0  0  0  0
  4 10  1  0  0  0  0
  5  6  2  0  0  0  0
  5 16  1  0  0  0  0
  6 14  1  0  0  0  0
  7  8  2  0  0  0  0
  7 27  1  0  0  0  0
  8  9  1  0  0  0  0
  8 28  1  0  0  0  0
  9 10  2  0  0  0  0
  9 11  1  0  0  0  0
 10 29  1  0  0  0  0
 11 12  2  0  0  0  0
 11 13  1  0  0  0  0
 12 30  1  0  0  0  0
 12 45  1  0  0  0  0
 13 31  1  0  0  0  0
 13 32  1  0  0  0  0
 14 15  1  0  0  0  0
 15 33  1  0  0  0  0
 15 34  1  0  0  0  0
 15 35  1  0  0  0  0
 16 17  1  0  0  0  0
 16 20  1  0  0  0  0
 16 36  1  1  0  0  0
 17 18  1  0  0  0  0
 17 37  1  0  0  0  0
 17 38  1  0  0  0  0
 18 19  1  0  0  0  0
 18 21  1  0  0  0  0
 19 20  1  0  0  0  0
 19 39  1  0  0  0  0
 20 40  1  0  0  0  0
 20 41  1  0  0  0  0
 21 22  2  0  0  0  0
 21 23  2  0  0  0  0
 21 24  1  0  0  0  0
 24 42  1  0  0  0  0
 24 43  1  0  0  0  0
 24 44  1  0  0  0  0
M  END
$$$$
