UIB
 OpenBabel04041917453D

 67 71  0  0  1  0  0  0  0  0999 V2000
   -5.0092    9.5862   19.8292 N   0  0  0  0  0  0  0  0  0  0  0  0
   -3.7306    9.3917   19.6331 C   0  0  0  0  0  0  0  0  0  0  0  0
   -3.0482   10.3407   19.0361 N   0  0  0  0  0  0  0  0  0  0  0  0
   -3.1276    8.1256   20.0803 C   0  0  0  0  0  0  0  0  0  0  0  0
   -1.7749    7.8520   19.8587 C   0  0  0  0  0  0  0  0  0  0  0  0
   -1.2175    6.6530   20.2947 C   0  0  0  0  0  0  0  0  0  0  0  0
   -2.0000    5.7131   20.9763 C   0  0  0  0  0  0  0  0  0  0  0  0
   -1.3353    4.4704   21.4934 C   0  0  1  0  0  0  0  0  0  0  0  0
   -0.7806    4.4476   22.9096 C   0  0  2  0  0  0  0  0  0  0  0  0
   -0.4380    2.9670   23.1546 C   0  0  2  0  0  0  0  0  0  0  0  0
   -1.3633    2.1767   22.1854 C   0  0  0  0  0  0  0  0  0  0  0  0
   -2.1544    1.1419   22.9681 C   0  0  0  0  0  0  0  0  0  0  0  0
   -0.4987    1.5157   21.1189 C   0  0  0  0  0  0  0  0  0  0  0  0
   -2.2044    3.2186   21.4381 N   0  3  2  0  0  0  0  0  0  0  0  0
   -2.5575    2.8467   20.0142 C   0  0  0  0  0  0  0  0  0  0  0  0
   -0.7505    2.7459   24.6614 C   0  0  2  0  0  0  0  0  0  0  0  0
   -1.8117    3.7074   24.9173 N   0  0  0  0  0  0  0  0  0  0  0  0
   -2.7531    3.6693   26.0614 C   0  0  0  0  0  0  0  0  0  0  0  0
   -2.5622    4.7951   27.0768 C   0  0  0  0  0  0  0  0  0  0  0  0
   -3.5525    5.8057   27.2282 C   0  0  0  0  0  0  0  0  0  0  0  0
   -3.4399    6.7980   28.2293 C   0  0  0  0  0  0  0  0  0  0  0  0
   -2.3136    6.7729   29.0493 C   0  0  0  0  0  0  0  0  0  0  0  0
   -1.3362    5.8136   28.9049 C   0  0  0  0  0  0  0  0  0  0  0  0
   -1.4386    4.8249   27.9341 C   0  0  0  0  0  0  0  0  0  0  0  0
   -0.3261    5.9648   29.8143 O   0  0  0  0  0  0  0  0  0  0  0  0
   -0.7545    7.1392   30.5536 C   0  0  0  0  0  0  0  0  0  0  0  0
   -2.0232    7.6449   30.0635 O   0  0  0  0  0  0  0  0  0  0  0  0
   -1.8502    4.7540   23.9848 C   0  0  0  0  0  0  0  0  0  0  0  0
   -2.6037    5.6638   23.9932 O   0  0  0  0  0  0  0  0  0  0  0  0
    0.4718    2.9016   25.5491 C   0  0  0  0  0  0  0  0  0  0  0  0
    1.2435    1.5980   25.6827 C   0  0  0  0  0  0  0  0  0  0  0  0
   -3.3592    5.9617   21.1772 C   0  0  0  0  0  0  0  0  0  0  0  0
   -3.9099    7.1593   20.7413 C   0  0  0  0  0  0  0  0  0  0  0  0
   -5.6069    8.9126   20.2769 H   0  0  0  0  0  0  0  0  0  0  0  0
   -2.0601   10.2692   18.8489 H   0  0  0  0  0  0  0  0  0  0  0  0
   -3.5060   11.1980   18.7453 H   0  0  0  0  0  0  0  0  0  0  0  0
   -1.1380    8.5702   19.3535 H   0  0  0  0  0  0  0  0  0  0  0  0
   -0.1584    6.4673   20.1218 H   0  0  0  0  0  0  0  0  0  0  0  0
   -0.4923    4.2722   20.8111 H   0  0  0  0  0  0  0  0  0  0  0  0
    0.0847    5.1038   23.0341 H   0  0  0  0  0  0  0  0  0  0  0  0
    0.6007    2.7000   22.9115 H   0  0  0  0  0  0  0  0  0  0  0  0
   -2.8552    0.5691   22.3728 H   0  0  0  0  0  0  0  0  0  0  0  0
   -2.7179    1.5954   23.7972 H   0  0  0  0  0  0  0  0  0  0  0  0
   -1.4275    0.4296   23.4113 H   0  0  0  0  0  0  0  0  0  0  0  0
    0.0170    2.2810   20.5190 H   0  0  0  0  0  0  0  0  0  0  0  0
   -1.1026    0.8964   20.4450 H   0  0  0  0  0  0  0  0  0  0  0  0
    0.2536    0.8976   21.5878 H   0  0  0  0  0  0  0  0  0  0  0  0
   -3.1322    3.6468   19.5517 H   0  0  0  0  0  0  0  0  0  0  0  0
   -3.1289    1.9233   20.0534 H   0  0  0  0  0  0  0  0  0  0  0  0
   -1.6327    2.7127   19.4563 H   0  0  0  0  0  0  0  0  0  0  0  0
   -1.1199    1.7383   24.8503 H   0  0  0  0  0  0  0  0  0  0  0  0
   -2.6623    2.7014   26.5773 H   0  0  0  0  0  0  0  0  0  0  0  0
   -3.7821    3.7185   25.6546 H   0  0  0  0  0  0  0  0  0  0  0  0
   -4.4274    5.8172   26.5683 H   0  0  0  0  0  0  0  0  0  0  0  0
   -4.2271    7.5474   28.3491 H   0  0  0  0  0  0  0  0  0  0  0  0
   -0.6710    4.0745   27.8636 H   0  0  0  0  0  0  0  0  0  0  0  0
    0.0137    7.9306   30.4700 H   0  0  0  0  0  0  0  0  0  0  0  0
   -0.8440    6.8935   31.6279 H   0  0  0  0  0  0  0  0  0  0  0  0
    0.1613    3.1788   26.5442 H   0  0  0  0  0  0  0  0  0  0  0  0
    1.1380    3.6734   25.1679 H   0  0  0  0  0  0  0  0  0  0  0  0
    2.1061    1.7303   26.3460 H   0  0  0  0  0  0  0  0  0  0  0  0
    1.5986    1.2753   24.7007 H   0  0  0  0  0  0  0  0  0  0  0  0
    0.6012    0.8128   26.1019 H   0  0  0  0  0  0  0  0  0  0  0  0
   -3.9846    5.2483   21.7070 H   0  0  0  0  0  0  0  0  0  0  0  0
   -4.9628    7.3407   20.9448 H   0  0  0  0  0  0  0  0  0  0  0  0
   -5.4529   10.4462   19.5363 H   0  0  0  0  0  0  0  0  0  0  0  0
   -3.0806    3.4198   21.9351 H   0  0  0  0  0  0  0  0  0  0  0  0
  1  2  2  0  0  0  0
  1 34  1  0  0  0  0
  1 66  1  0  0  0  0
  2  3  1  0  0  0  0
  2  4  1  0  0  0  0
  3 35  1  0  0  0  0
  3 36  1  0  0  0  0
  4  5  2  0  0  0  0
  4 33  1  0  0  0  0
  5  6  1  0  0  0  0
  5 37  1  0  0  0  0
  6  7  2  0  0  0  0
  6 38  1  0  0  0  0
  7  8  1  0  0  0  0
  7 32  1  0  0  0  0
  8  9  1  0  0  0  0
  8 14  1  0  0  0  0
  8 39  1  6  0  0  0
  9 10  1  0  0  0  0
  9 28  1  0  0  0  0
  9 40  1  1  0  0  0
 10 11  1  0  0  0  0
 10 16  1  0  0  0  0
 10 41  1  6  0  0  0
 11 12  1  0  0  0  0
 11 13  1  0  0  0  0
 11 14  1  0  0  0  0
 12 42  1  0  0  0  0
 12 43  1  0  0  0  0
 12 44  1  0  0  0  0
 13 45  1  0  0  0  0
 13 46  1  0  0  0  0
 13 47  1  0  0  0  0
 14 15  1  0  0  0  0
 14 67  1  1  0  0  0
 15 48  1  0  0  0  0
 15 49  1  0  0  0  0
 15 50  1  0  0  0  0
 16 17  1  0  0  0  0
 16 30  1  0  0  0  0
 16 51  1  1  0  0  0
 17 18  1  0  0  0  0
 17 28  1  0  0  0  0
 18 19  1  0  0  0  0
 18 52  1  0  0  0  0
 18 53  1  0  0  0  0
 19 20  2  0  0  0  0
 19 24  1  0  0  0  0
 20 21  1  0  0  0  0
 20 54  1  0  0  0  0
 21 22  2  0  0  0  0
 21 55  1  0  0  0  0
 22 23  1  0  0  0  0
 22 27  1  0  0  0  0
 23 24  2  0  0  0  0
 23 25  1  0  0  0  0
 24 56  1  0  0  0  0
 25 26  1  0  0  0  0
 26 27  1  0  0  0  0
 26 57  1  0  0  0  0
 26 58  1  0  0  0  0
 28 29  2  0  0  0  0
 30 31  1  0  0  0  0
 30 59  1  0  0  0  0
 30 60  1  0  0  0  0
 31 61  1  0  0  0  0
 31 62  1  0  0  0  0
 31 63  1  0  0  0  0
 32 33  2  0  0  0  0
 32 64  1  0  0  0  0
 33 65  1  0  0  0  0
M  CHG  1  14   1
M  END
$$$$
