UIB
 OpenBabel04041917513D

 67 71  0  0  1  0  0  0  0  0999 V2000
   10.7022  -11.7961   24.3297 N   0  0  0  0  0  0  0  0  0  0  0  0
   11.4005  -10.7521   23.9282 C   0  0  0  0  0  0  0  0  0  0  0  0
   11.0871   -9.5780   24.4355 N   0  0  0  0  0  0  0  0  0  0  0  0
   12.5058  -10.9021   22.9344 C   0  0  0  0  0  0  0  0  0  0  0  0
   13.2661   -9.8086   22.4741 C   0  0  0  0  0  0  0  0  0  0  0  0
   14.3089   -9.9682   21.5413 C   0  0  0  0  0  0  0  0  0  0  0  0
   14.6380  -11.2285   21.0309 C   0  0  0  0  0  0  0  0  0  0  0  0
   15.7135  -11.3600   19.9693 C   0  0  1  0  0  0  0  0  0  0  0  0
   17.1645  -11.5457   20.3808 C   0  0  2  0  0  0  0  0  0  0  0  0
   17.8899  -12.0684   19.1269 C   0  0  2  0  0  0  0  0  0  0  0  0
   16.7938  -12.6534   18.1852 C   0  0  0  0  0  0  0  0  0  0  0  0
   16.9323  -14.1301   17.8134 C   0  0  0  0  0  0  0  0  0  0  0  0
   16.7442  -11.8014   16.9026 C   0  0  0  0  0  0  0  0  0  0  0  0
   15.4834  -12.4925   18.9734 N   0  3  2  0  0  0  0  0  0  0  0  0
   14.2168  -12.3641   18.1679 C   0  0  0  0  0  0  0  0  0  0  0  0
   18.9717  -13.0316   19.6630 C   0  0  2  0  0  0  0  0  0  0  0  0
   18.4993  -13.3724   20.9908 N   0  0  0  0  0  0  0  0  0  0  0  0
   19.0405  -14.4863   21.7745 C   0  0  0  0  0  0  0  0  0  0  0  0
   20.0421  -14.0832   22.8351 C   0  0  0  0  0  0  0  0  0  0  0  0
   19.6115  -13.6276   24.1038 C   0  0  0  0  0  0  0  0  0  0  0  0
   20.5305  -13.3219   25.1190 C   0  0  0  0  0  0  0  0  0  0  0  0
   21.8719  -13.4630   24.8378 C   0  0  0  0  0  0  0  0  0  0  0  0
   22.3040  -13.8922   23.6083 C   0  0  0  0  0  0  0  0  0  0  0  0
   21.4222  -14.2158   22.5975 C   0  0  0  0  0  0  0  0  0  0  0  0
   23.6590  -13.9694   23.5300 O   0  0  0  0  0  0  0  0  0  0  0  0
   24.0346  -13.5490   24.8602 C   0  0  0  0  0  0  0  0  0  0  0  0
   22.9001  -13.2231   25.6932 O   0  0  0  0  0  0  0  0  0  0  0  0
   17.4219  -12.6184   21.4027 C   0  0  0  0  0  0  0  0  0  0  0  0
   16.7651  -12.7838   22.4173 O   0  0  0  0  0  0  0  0  0  0  0  0
   20.3553  -12.3810   19.6556 C   0  0  0  0  0  0  0  0  0  0  0  0
   20.8997  -12.2368   18.2376 C   0  0  0  0  0  0  0  0  0  0  0  0
   13.9028  -12.3235   21.5047 C   0  0  0  0  0  0  0  0  0  0  0  0
   12.8525  -12.1594   22.4162 C   0  0  0  0  0  0  0  0  0  0  0  0
   10.8786  -12.7344   23.9975 H   0  0  0  0  0  0  0  0  0  0  0  0
   11.5741   -8.7277   24.1857 H   0  0  0  0  0  0  0  0  0  0  0  0
   10.3460   -9.4717   25.1175 H   0  0  0  0  0  0  0  0  0  0  0  0
   13.0770   -8.7955   22.8185 H   0  0  0  0  0  0  0  0  0  0  0  0
   14.8534   -9.0786   21.2177 H   0  0  0  0  0  0  0  0  0  0  0  0
   15.6550  -10.4550   19.3480 H   0  0  0  0  0  0  0  0  0  0  0  0
   17.6093  -10.6143   20.7524 H   0  0  0  0  0  0  0  0  0  0  0  0
   18.3556  -11.2118   18.6259 H   0  0  0  0  0  0  0  0  0  0  0  0
   16.0836  -14.4762   17.2146 H   0  0  0  0  0  0  0  0  0  0  0  0
   16.9816  -14.7710   18.7004 H   0  0  0  0  0  0  0  0  0  0  0  0
   17.8350  -14.2940   17.2153 H   0  0  0  0  0  0  0  0  0  0  0  0
   16.5727  -10.7422   17.1262 H   0  0  0  0  0  0  0  0  0  0  0  0
   15.9599  -12.1341   16.2150 H   0  0  0  0  0  0  0  0  0  0  0  0
   17.6949  -11.8736   16.3598 H   0  0  0  0  0  0  0  0  0  0  0  0
   13.3643  -12.3174   18.8476 H   0  0  0  0  0  0  0  0  0  0  0  0
   14.1251  -13.2530   17.5409 H   0  0  0  0  0  0  0  0  0  0  0  0
   14.2592  -11.4496   17.5731 H   0  0  0  0  0  0  0  0  0  0  0  0
   19.0338  -13.9574   19.0864 H   0  0  0  0  0  0  0  0  0  0  0  0
   19.4810  -15.2180   21.0872 H   0  0  0  0  0  0  0  0  0  0  0  0
   18.2015  -14.9932   22.2690 H   0  0  0  0  0  0  0  0  0  0  0  0
   18.5479  -13.5357   24.3217 H   0  0  0  0  0  0  0  0  0  0  0  0
   20.2031  -13.0004   26.1014 H   0  0  0  0  0  0  0  0  0  0  0  0
   21.8089  -14.5796   21.6523 H   0  0  0  0  0  0  0  0  0  0  0  0
   24.6768  -12.6642   24.7803 H   0  0  0  0  0  0  0  0  0  0  0  0
   24.6059  -14.3549   25.3355 H   0  0  0  0  0  0  0  0  0  0  0  0
   21.0600  -13.0012   20.2102 H   0  0  0  0  0  0  0  0  0  0  0  0
   20.3266  -11.4062   20.1546 H   0  0  0  0  0  0  0  0  0  0  0  0
   21.8975  -11.7955   18.2618 H   0  0  0  0  0  0  0  0  0  0  0  0
   20.2637  -11.5998   17.6171 H   0  0  0  0  0  0  0  0  0  0  0  0
   20.9706  -13.2163   17.7502 H   0  0  0  0  0  0  0  0  0  0  0  0
   14.1214  -13.3402   21.1849 H   0  0  0  0  0  0  0  0  0  0  0  0
   12.3292  -13.0671   22.7044 H   0  0  0  0  0  0  0  0  0  0  0  0
    9.9541  -11.7198   25.0092 H   0  0  0  0  0  0  0  0  0  0  0  0
   15.3835  -13.3493   19.5327 H   0  0  0  0  0  0  0  0  0  0  0  0
  1  2  2  0  0  0  0
  1 34  1  0  0  0  0
  1 66  1  0  0  0  0
  2  3  1  0  0  0  0
  2  4  1  0  0  0  0
  3 35  1  0  0  0  0
  3 36  1  0  0  0  0
  4  5  2  0  0  0  0
  4 33  1  0  0  0  0
  5  6  1  0  0  0  0
  5 37  1  0  0  0  0
  6  7  2  0  0  0  0
  6 38  1  0  0  0  0
  7  8  1  0  0  0  0
  7 32  1  0  0  0  0
  8  9  1  0  0  0  0
  8 14  1  0  0  0  0
  8 39  1  6  0  0  0
  9 10  1  0  0  0  0
  9 28  1  0  0  0  0
  9 40  1  1  0  0  0
 10 11  1  0  0  0  0
 10 16  1  0  0  0  0
 10 41  1  6  0  0  0
 11 12  1  0  0  0  0
 11 13  1  0  0  0  0
 11 14  1  0  0  0  0
 12 42  1  0  0  0  0
 12 43  1  0  0  0  0
 12 44  1  0  0  0  0
 13 45  1  0  0  0  0
 13 46  1  0  0  0  0
 13 47  1  0  0  0  0
 14 15  1  0  0  0  0
 14 67  1  1  0  0  0
 15 48  1  0  0  0  0
 15 49  1  0  0  0  0
 15 50  1  0  0  0  0
 16 17  1  0  0  0  0
 16 30  1  0  0  0  0
 16 51  1  6  0  0  0
 17 18  1  0  0  0  0
 17 28  1  0  0  0  0
 18 19  1  0  0  0  0
 18 52  1  0  0  0  0
 18 53  1  0  0  0  0
 19 20  2  0  0  0  0
 19 24  1  0  0  0  0
 20 21  1  0  0  0  0
 20 54  1  0  0  0  0
 21 22  2  0  0  0  0
 21 55  1  0  0  0  0
 22 23  1  0  0  0  0
 22 27  1  0  0  0  0
 23 24  2  0  0  0  0
 23 25  1  0  0  0  0
 24 56  1  0  0  0  0
 25 26  1  0  0  0  0
 26 27  1  0  0  0  0
 26 57  1  0  0  0  0
 26 58  1  0  0  0  0
 28 29  2  0  0  0  0
 30 31  1  0  0  0  0
 30 59  1  0  0  0  0
 30 60  1  0  0  0  0
 31 61  1  0  0  0  0
 31 62  1  0  0  0  0
 31 63  1  0  0  0  0
 32 33  2  0  0  0  0
 32 64  1  0  0  0  0
 33 65  1  0  0  0  0
M  CHG  1  14   1
M  END
$$$$
