UIR
 OpenBabel04041917513D

 66 72  0  0  1  0  0  0  0  0999 V2000
   10.3786  -11.8407   24.2827 N   0  0  0  0  0  0  0  0  0  0  0  0
   11.0621  -10.7951   23.8744 C   0  0  0  0  0  0  0  0  0  0  0  0
   12.1699  -10.9313   22.8821 C   0  0  0  0  0  0  0  0  0  0  0  0
   12.5124  -12.1798   22.3339 C   0  0  0  0  0  0  0  0  0  0  0  0
   13.5754  -12.3260   21.4317 C   0  0  0  0  0  0  0  0  0  0  0  0
   14.3478  -11.2303   21.0286 C   0  0  0  0  0  0  0  0  0  0  0  0
   15.5143  -11.3531   20.0708 C   0  0  2  0  0  0  0  0  0  0  0  0
   15.4082  -12.4927   19.0776 N   0  3  1  0  0  0  0  0  0  0  0  0
   14.4056  -12.3189   17.9578 C   0  0  0  0  0  0  0  0  0  0  0  0
   15.2347  -12.4268   16.6875 C   0  0  0  0  0  0  0  0  0  0  0  0
   16.6202  -11.9649   17.1053 C   0  0  0  0  0  0  0  0  0  0  0  0
   16.7811  -12.6409   18.4538 C   0  0  1  0  0  0  0  0  0  0  0  0
   17.7796  -11.9998   19.4273 C   0  0  2  0  0  0  0  0  0  0  0  0
   20.1723  -13.0503   19.7302 C   0  0  0  0  0  0  0  0  0  0  0  0
   18.7017  -13.0846   19.9974 C   0  0  1  0  0  0  0  0  0  0  0  0
   21.1738  -12.1158   20.3581 C   0  0  0  0  0  0  0  0  0  0  0  0
   20.8576  -11.9966   18.8922 C   0  0  0  0  0  0  0  0  0  0  0  0
   18.3177  -13.2332   21.3779 N   0  0  0  0  0  0  0  0  0  0  0  0
   17.1407  -12.5591   21.6647 C   0  0  0  0  0  0  0  0  0  0  0  0
   16.3787  -12.7894   22.5910 O   0  0  0  0  0  0  0  0  0  0  0  0
   16.9328  -11.5003   20.6186 C   0  0  2  0  0  0  0  0  0  0  0  0
   18.7316  -14.4083   22.1399 C   0  0  0  0  0  0  0  0  0  0  0  0
   19.7054  -14.0694   23.2342 C   0  0  0  0  0  0  0  0  0  0  0  0
   21.0751  -14.2873   23.0565 C   0  0  0  0  0  0  0  0  0  0  0  0
   21.9307  -13.9658   24.0904 C   0  0  0  0  0  0  0  0  0  0  0  0
   23.2755  -14.1118   24.0743 O   0  0  0  0  0  0  0  0  0  0  0  0
   23.6156  -13.6399   25.4000 C   0  0  0  0  0  0  0  0  0  0  0  0
   22.4696  -13.2159   26.1594 O   0  0  0  0  0  0  0  0  0  0  0  0
   21.4647  -13.4561   25.2761 C   0  0  0  0  0  0  0  0  0  0  0  0
   20.1249  -13.2258   25.4930 C   0  0  0  0  0  0  0  0  0  0  0  0
   19.2330  -13.5327   24.4597 C   0  0  0  0  0  0  0  0  0  0  0  0
   14.0045   -9.9780   21.5509 C   0  0  0  0  0  0  0  0  0  0  0  0
   12.9379   -9.8321   22.4556 C   0  0  0  0  0  0  0  0  0  0  0  0
   10.7415   -9.6163   24.3743 N   0  0  0  0  0  0  0  0  0  0  0  0
    9.6275  -11.7679   24.9584 H   0  0  0  0  0  0  0  0  0  0  0  0
   11.9840  -13.0903   22.6001 H   0  0  0  0  0  0  0  0  0  0  0  0
   13.7928  -13.3359   21.0918 H   0  0  0  0  0  0  0  0  0  0  0  0
   15.5035  -10.4477   19.4442 H   0  0  0  0  0  0  0  0  0  0  0  0
   13.9230  -11.3430   18.0590 H   0  0  0  0  0  0  0  0  0  0  0  0
   13.6644  -13.1192   18.0464 H   0  0  0  0  0  0  0  0  0  0  0  0
   14.8203  -11.8274   15.8718 H   0  0  0  0  0  0  0  0  0  0  0  0
   15.2697  -13.4708   16.3535 H   0  0  0  0  0  0  0  0  0  0  0  0
   16.6535  -10.8731   17.1901 H   0  0  0  0  0  0  0  0  0  0  0  0
   17.3943  -12.2821   16.4010 H   0  0  0  0  0  0  0  0  0  0  0  0
   16.9160  -13.7180   18.3066 H   0  0  0  0  0  0  0  0  0  0  0  0
   18.2994  -11.1599   18.9602 H   0  0  0  0  0  0  0  0  0  0  0  0
   20.5379  -14.0698   19.6053 H   0  0  0  0  0  0  0  0  0  0  0  0
   18.4033  -14.0391   19.5474 H   0  0  0  0  0  0  0  0  0  0  0  0
   22.1473  -12.5330   20.6188 H   0  0  0  0  0  0  0  0  0  0  0  0
   20.8434  -11.3442   21.0387 H   0  0  0  0  0  0  0  0  0  0  0  0
   20.3777  -11.0765   18.5883 H   0  0  0  0  0  0  0  0  0  0  0  0
   21.5914  -12.3484   18.1712 H   0  0  0  0  0  0  0  0  0  0  0  0
   17.3076  -10.5554   21.0310 H   0  0  0  0  0  0  0  0  0  0  0  0
   19.1755  -15.1405   21.4515 H   0  0  0  0  0  0  0  0  0  0  0  0
   17.8434  -14.8945   22.5647 H   0  0  0  0  0  0  0  0  0  0  0  0
   21.4753  -14.7003   22.1383 H   0  0  0  0  0  0  0  0  0  0  0  0
   24.3035  -12.7934   25.3003 H   0  0  0  0  0  0  0  0  0  0  0  0
   24.1202  -14.4477   25.9387 H   0  0  0  0  0  0  0  0  0  0  0  0
   19.7744  -12.8265   26.4410 H   0  0  0  0  0  0  0  0  0  0  0  0
   18.1701  -13.3640   24.6126 H   0  0  0  0  0  0  0  0  0  0  0  0
   14.5652   -9.0842   21.2700 H   0  0  0  0  0  0  0  0  0  0  0  0
   12.7500   -8.8263   22.8203 H   0  0  0  0  0  0  0  0  0  0  0  0
   11.2203   -8.7680   24.1187 H   0  0  0  0  0  0  0  0  0  0  0  0
   10.0001   -9.5080   25.0555 H   0  0  0  0  0  0  0  0  0  0  0  0
   10.5684  -12.7814   23.9598 H   0  0  0  0  0  0  0  0  0  0  0  0
   15.2010  -13.3610   19.5862 H   0  0  0  0  0  0  0  0  0  0  0  0
  1  2  2  0  0  0  0
  1 35  1  0  0  0  0
  1 65  1  0  0  0  0
  2  3  1  0  0  0  0
  2 34  1  0  0  0  0
  3  4  2  0  0  0  0
  3 33  1  0  0  0  0
  4  5  1  0  0  0  0
  4 36  1  0  0  0  0
  5  6  2  0  0  0  0
  5 37  1  0  0  0  0
  6  7  1  0  0  0  0
  6 32  1  0  0  0  0
  7  8  1  0  0  0  0
  7 21  1  0  0  0  0
  7 38  1  6  0  0  0
  8  9  1  0  0  0  0
  8 12  1  0  0  0  0
  8 66  1  1  0  0  0
  9 10  1  0  0  0  0
  9 39  1  0  0  0  0
  9 40  1  0  0  0  0
 10 11  1  0  0  0  0
 10 41  1  0  0  0  0
 10 42  1  0  0  0  0
 11 12  1  0  0  0  0
 11 43  1  0  0  0  0
 11 44  1  0  0  0  0
 12 13  1  0  0  0  0
 12 45  1  6  0  0  0
 13 15  1  0  0  0  0
 13 21  1  0  0  0  0
 13 46  1  6  0  0  0
 14 15  1  0  0  0  0
 14 16  1  0  0  0  0
 14 17  1  0  0  0  0
 14 47  1  0  0  0  0
 15 18  1  0  0  0  0
 15 48  1  6  0  0  0
 16 17  1  0  0  0  0
 16 49  1  0  0  0  0
 16 50  1  0  0  0  0
 17 51  1  0  0  0  0
 17 52  1  0  0  0  0
 18 19  1  0  0  0  0
 18 22  1  0  0  0  0
 19 20  2  0  0  0  0
 19 21  1  0  0  0  0
 21 53  1  1  0  0  0
 22 23  1  0  0  0  0
 22 54  1  0  0  0  0
 22 55  1  0  0  0  0
 23 24  2  0  0  0  0
 23 31  1  0  0  0  0
 24 25  1  0  0  0  0
 24 56  1  0  0  0  0
 25 26  1  0  0  0  0
 25 29  2  0  0  0  0
 26 27  1  0  0  0  0
 27 28  1  0  0  0  0
 27 57  1  0  0  0  0
 27 58  1  0  0  0  0
 28 29  1  0  0  0  0
 29 30  1  0  0  0  0
 30 31  2  0  0  0  0
 30 59  1  0  0  0  0
 31 60  1  0  0  0  0
 32 33  2  0  0  0  0
 32 61  1  0  0  0  0
 33 62  1  0  0  0  0
 34 63  1  0  0  0  0
 34 64  1  0  0  0  0
M  CHG  1   8   1
M  END
$$$$
