UM3
 OpenBabel04041917253D

 31 32  0  0  1  0  0  0  0  0999 V2000
   36.7058   -2.2230   12.2192 N   0  3  0  0  0  0  0  0  0  0  0  0
   35.5257   -2.3283   11.4859 C   0  0  0  0  0  0  0  0  0  0  0  0
   34.8262   -3.5234   11.6162 N   0  3  0  0  0  0  0  0  0  0  0  0
   35.1967   -4.6161   12.3709 C   0  0  0  0  0  0  0  0  0  0  0  0
   36.4213   -4.4138   13.1359 C   0  0  0  0  0  0  0  0  0  0  0  0
   37.1083   -3.2634   13.0380 C   0  0  0  0  0  0  0  0  0  0  0  0
   35.0621   -1.4870   10.7190 O   0  0  0  0  0  0  0  0  0  0  0  0
   34.5621   -5.6518   12.3969 O   0  0  0  0  0  0  0  0  0  0  0  0
   37.4142   -0.8918   12.2199 C   0  0  1  0  0  0  0  0  0  0  0  0
   37.2494   -0.1025   13.5081 C   0  0  0  0  0  0  0  0  0  0  0  0
   38.3215    0.9555   13.3827 C   0  0  1  0  0  0  0  0  0  0  0  0
   39.4321    0.2332   12.6194 C   0  0  2  0  0  0  0  0  0  0  0  0
   37.9210    2.0900   12.6425 O   0  0  0  0  0  0  0  0  0  0  0  0
   38.8644   -1.0314   12.0939 O   0  0  0  0  0  0  0  0  0  0  0  0
   40.5986   -0.0627   13.5792 C   0  0  0  0  0  0  0  0  0  0  0  0
   40.3638   -1.2775   14.2969 O   0  0  0  0  0  0  0  0  0  0  0  0
   37.2320    3.3150   13.4944 P   0  0  0  0  0  0  0  0  0  0  0  0
   37.4818    4.5357   12.6338 O   0  0  0  0  0  0  0  0  0  0  0  0
   35.7755    2.8674   13.5857 O   0  0  0  0  0  0  0  0  0  0  0  0
   37.9693    3.3256   14.8267 O   0  0  0  0  0  0  0  0  0  0  0  0
   33.9758   -3.5891   11.0841 H   0  0  0  0  0  0  0  0  0  0  0  0
   36.7326   -5.2251   13.7805 H   0  0  0  0  0  0  0  0  0  0  0  0
   38.0191   -3.1007   13.6214 H   0  0  0  0  0  0  0  0  0  0  0  0
   37.0641   -0.3062   11.3675 H   0  0  0  0  0  0  0  0  0  0  0  0
   37.5080   -0.7324   14.3674 H   0  0  0  0  0  0  0  0  0  0  0  0
   36.2386    0.2799   13.6414 H   0  0  0  0  0  0  0  0  0  0  0  0
   38.6783    1.2677   14.3640 H   0  0  0  0  0  0  0  0  0  0  0  0
   39.8084    0.8321   11.7775 H   0  0  0  0  0  0  0  0  0  0  0  0
   40.7594    0.7561   14.2925 H   0  0  0  0  0  0  0  0  0  0  0  0
   41.5386   -0.1955   13.0359 H   0  0  0  0  0  0  0  0  0  0  0  0
   40.0198   -1.8741   13.6059 H   0  0  0  0  0  0  0  0  0  0  0  0
  1  2  1  0  0  0  0
  1  6  1  0  0  0  0
  1  9  1  0  0  0  0
  2  3  1  0  0  0  0
  2  7  2  0  0  0  0
  3  4  1  0  0  0  0
  3 21  1  0  0  0  0
  4  5  1  0  0  0  0
  4  8  2  0  0  0  0
  5  6  2  0  0  0  0
  5 22  1  0  0  0  0
  6 23  1  0  0  0  0
  9 10  1  0  0  0  0
  9 14  1  0  0  0  0
  9 24  1  6  0  0  0
 10 11  1  0  0  0  0
 10 25  1  0  0  0  0
 10 26  1  0  0  0  0
 11 12  1  0  0  0  0
 11 13  1  0  0  0  0
 11 27  1  1  0  0  0
 12 14  1  0  0  0  0
 12 15  1  0  0  0  0
 12 28  1  6  0  0  0
 13 17  1  0  0  0  0
 15 16  1  0  0  0  0
 15 29  1  0  0  0  0
 15 30  1  0  0  0  0
 16 31  1  0  0  0  0
 17 18  2  0  0  0  0
 17 19  1  0  0  0  0
 17 20  1  0  0  0  0
M  CHG  2   1   1   3   1
M  END
$$$$
