UMP
 OpenBabel04041915113D

 31 32  0  0  1  0  0  0  0  0999 V2000
   14.6831   46.2297  -51.5751 N   0  3  0  0  0  0  0  0  0  0  0  0
   14.2061   44.9361  -51.3008 C   0  0  0  0  0  0  0  0  0  0  0  0
   13.2274   44.7387  -50.4048 N   0  3  0  0  0  0  0  0  0  0  0  0
   12.6310   45.6868  -49.6369 C   0  0  0  0  0  0  0  0  0  0  0  0
   13.1988   47.0769  -49.9106 C   0  0  0  0  0  0  0  0  0  0  0  0
   14.1662   47.2793  -50.8164 C   0  0  0  0  0  0  0  0  0  0  0  0
   14.6318   43.9292  -51.8746 O   0  0  0  0  0  0  0  0  0  0  0  0
   11.7798   45.3861  -48.8346 O   0  0  0  0  0  0  0  0  0  0  0  0
   15.6128   46.3665  -52.7979 C   0  0  1  0  0  0  0  0  0  0  0  0
   14.8870   46.1069  -54.1038 C   0  0  0  0  0  0  0  0  0  0  0  0
   15.9643   46.3265  -55.1453 C   0  0  1  0  0  0  0  0  0  0  0  0
   16.7921   47.4898  -54.6089 C   0  0  2  0  0  0  0  0  0  0  0  0
   16.7907   45.1514  -55.1945 O   0  0  0  0  0  0  0  0  0  0  0  0
   16.3636   47.6024  -53.1271 O   0  0  0  0  0  0  0  0  0  0  0  0
   16.5084   48.7617  -55.4708 C   0  0  0  0  0  0  0  0  0  0  0  0
   16.9223   48.6175  -56.8487 O   0  0  0  0  0  0  0  0  0  0  0  0
   15.8965   49.1522  -58.0609 P   0  0  0  0  0  0  0  0  0  0  0  0
   16.7080   49.2891  -59.3394 O   0  0  0  0  0  0  0  0  0  0  0  0
   14.8525   48.0302  -58.1134 O   0  0  0  0  0  0  0  0  0  0  0  0
   15.3343   50.4789  -57.5439 O   0  0  0  0  0  0  0  0  0  0  0  0
   12.8920   43.7861  -50.2655 H   0  0  0  0  0  0  0  0  0  0  0  0
   12.7658   47.9037  -49.3380 H   0  0  0  0  0  0  0  0  0  0  0  0
   14.6058   48.2665  -51.0304 H   0  0  0  0  0  0  0  0  0  0  0  0
   16.3651   45.5915  -52.6108 H   0  0  0  0  0  0  0  0  0  0  0  0
   14.0720   46.8291  -54.2381 H   0  0  0  0  0  0  0  0  0  0  0  0
   14.4913   45.0938  -54.1380 H   0  0  0  0  0  0  0  0  0  0  0  0
   15.5374   46.5267  -56.1310 H   0  0  0  0  0  0  0  0  0  0  0  0
   17.8807   47.2754  -54.6864 H   0  0  0  0  0  0  0  0  0  0  0  0
   16.2323   44.4329  -55.5338 H   0  0  0  0  0  0  0  0  0  0  0  0
   17.0676   49.6028  -55.0438 H   0  0  0  0  0  0  0  0  0  0  0  0
   15.4408   48.9821  -55.3915 H   0  0  0  0  0  0  0  0  0  0  0  0
  1  2  1  0  0  0  0
  1  6  1  0  0  0  0
  1  9  1  0  0  0  0
  2  3  1  0  0  0  0
  2  7  2  0  0  0  0
  3  4  1  0  0  0  0
  3 21  1  0  0  0  0
  4  5  1  0  0  0  0
  4  8  2  0  0  0  0
  5  6  2  0  0  0  0
  5 22  1  0  0  0  0
  6 23  1  0  0  0  0
  9 10  1  0  0  0  0
  9 14  1  0  0  0  0
  9 24  1  1  0  0  0
 10 11  1  0  0  0  0
 10 25  1  0  0  0  0
 10 26  1  0  0  0  0
 11 12  1  0  0  0  0
 11 13  1  0  0  0  0
 11 27  1  6  0  0  0
 12 14  1  0  0  0  0
 12 15  1  0  0  0  0
 12 28  1  6  0  0  0
 13 29  1  0  0  0  0
 15 16  1  0  0  0  0
 15 30  1  0  0  0  0
 15 31  1  0  0  0  0
 16 17  1  0  0  0  0
 17 18  2  0  0  0  0
 17 19  1  0  0  0  0
 17 20  1  0  0  0  0
M  CHG  2   1   1   3   1
M  END
$$$$
