UNI
 OpenBabel04041914583D

 63 67  0  0  1  0  0  0  0  0999 V2000
   13.6701   23.0611    5.7590 C   0  0  0  0  0  0  0  0  0  0  0  0
   12.4553   22.4207    6.2273 C   0  0  0  0  0  0  0  0  0  0  0  0
   12.5320   21.3234    6.7847 O   0  0  0  0  0  0  0  0  0  0  0  0
   11.2371   22.9904    6.0560 O   0  3  0  0  0  0  0  0  0  0  0  0
   11.1687   24.2050    5.3521 C   0  0  0  0  0  0  0  0  0  0  0  0
   12.2784   24.8278    4.8783 C   0  0  0  0  0  0  0  0  0  0  0  0
   13.6150   24.2362    5.0986 C   0  0  0  0  0  0  0  0  0  0  0  0
   14.6009   24.9017    4.6603 O   0  0  0  0  0  0  0  0  0  0  0  0
   15.3908   21.2785    5.0659 C   0  0  0  0  0  0  0  0  0  0  0  0
   15.1598   21.3501    3.6756 C   0  0  0  0  0  0  0  0  0  0  0  0
   15.5193   20.2860    2.8374 C   0  0  0  0  0  0  0  0  0  0  0  0
   16.1127   19.1431    3.3680 C   0  0  0  0  0  0  0  0  0  0  0  0
   16.3050   19.0759    4.7437 C   0  0  0  0  0  0  0  0  0  0  0  0
   15.9841   20.1271    5.5753 C   0  0  0  0  0  0  0  0  0  0  0  0
   15.0462   22.4609    5.9895 C   0  0  2  0  0  0  0  0  0  0  0  0
   15.4986   22.2322    7.4411 C   0  0  0  0  0  0  0  0  0  0  0  0
   15.4148   23.3390    8.4747 C   0  0  0  0  0  0  0  0  0  0  0  0
   16.7678   22.9278    7.9406 C   0  0  0  0  0  0  0  0  0  0  0  0
    9.7666   24.7167    5.2013 C   0  0  0  0  0  0  0  0  0  0  0  0
    9.0863   24.5751    3.8346 C   0  0  0  0  0  0  0  0  0  0  0  0
    9.8821   23.8812    2.7526 C   0  0  0  0  0  0  0  0  0  0  0  0
   11.0632   24.6759    2.1996 C   0  0  0  0  0  0  0  0  0  0  0  0
   11.2934   26.0612    2.8008 C   0  0  0  0  0  0  0  0  0  0  0  0
   12.1309   26.1226    4.0946 C   0  0  0  0  0  0  0  0  0  0  0  0
   16.9340   17.9933    5.3640 N   0  0  0  0  0  0  0  0  0  0  0  0
   18.5748   18.0480    5.4078 S   0  0  0  0  0  0  0  0  0  0  0  0
   18.9328   16.6577    5.5544 O   0  0  0  0  0  0  0  0  0  0  0  0
   18.9771   18.8353    4.2645 O   0  0  0  0  0  0  0  0  0  0  0  0
   19.1553   19.0021    6.8470 C   0  0  0  0  0  0  0  0  0  0  0  0
   19.1150   18.5415    8.1734 C   0  0  0  0  0  0  0  0  0  0  0  0
   19.6678   19.3369    9.2026 C   0  0  0  0  0  0  0  0  0  0  0  0
   20.2765   20.5629    8.8850 C   0  0  0  0  0  0  0  0  0  0  0  0
   20.3277   21.0133    7.5624 C   0  0  0  0  0  0  0  0  0  0  0  0
   19.7813   20.2308    6.5485 C   0  0  0  0  0  0  0  0  0  0  0  0
   20.8836   21.3727    9.9184 C   0  0  0  0  0  0  0  0  0  0  0  0
   21.3714   21.9944   10.7118 N   0  0  0  0  0  0  0  0  0  0  0  0
   14.6985   22.2470    3.2442 H   0  0  0  0  0  0  0  0  0  0  0  0
   15.3292   20.3466    1.7686 H   0  0  0  0  0  0  0  0  0  0  0  0
   16.4262   18.3358    2.7080 H   0  0  0  0  0  0  0  0  0  0  0  0
   16.1996   20.0339    6.6333 H   0  0  0  0  0  0  0  0  0  0  0  0
   15.7569   23.2240    5.6607 H   0  0  0  0  0  0  0  0  0  0  0  0
   15.2964   21.2192    7.7736 H   0  0  0  0  0  0  0  0  0  0  0  0
   15.1479   23.1008    9.5000 H   0  0  0  0  0  0  0  0  0  0  0  0
   14.9854   24.2953    8.1777 H   0  0  0  0  0  0  0  0  0  0  0  0
   17.2999   23.5990    7.2638 H   0  0  0  0  0  0  0  0  0  0  0  0
   17.4647   22.4034    8.5847 H   0  0  0  0  0  0  0  0  0  0  0  0
    9.7714   25.7843    5.4540 H   0  0  0  0  0  0  0  0  0  0  0  0
    9.1183   24.2158    5.9333 H   0  0  0  0  0  0  0  0  0  0  0  0
    8.1527   24.0196    3.9604 H   0  0  0  0  0  0  0  0  0  0  0  0
    8.8124   25.5702    3.4699 H   0  0  0  0  0  0  0  0  0  0  0  0
   10.2530   22.9334    3.1525 H   0  0  0  0  0  0  0  0  0  0  0  0
    9.1980   23.6587    1.9211 H   0  0  0  0  0  0  0  0  0  0  0  0
   11.9585   24.0665    2.3447 H   0  0  0  0  0  0  0  0  0  0  0  0
   10.8954   24.7809    1.1195 H   0  0  0  0  0  0  0  0  0  0  0  0
   11.7915   26.6780    2.0427 H   0  0  0  0  0  0  0  0  0  0  0  0
   10.3322   26.5427    2.9953 H   0  0  0  0  0  0  0  0  0  0  0  0
   13.1225   26.5017    3.8276 H   0  0  0  0  0  0  0  0  0  0  0  0
   11.6784   26.8725    4.7642 H   0  0  0  0  0  0  0  0  0  0  0  0
   16.4782   17.1015    5.5594 H   0  0  0  0  0  0  0  0  0  0  0  0
   18.6549   17.5918    8.4215 H   0  0  0  0  0  0  0  0  0  0  0  0
   19.6303   19.0048   10.2448 H   0  0  0  0  0  0  0  0  0  0  0  0
   20.7926   21.9695    7.3191 H   0  0  0  0  0  0  0  0  0  0  0  0
   19.8302   20.5882    5.5164 H   0  0  0  0  0  0  0  0  0  0  0  0
  1 15  1  0  0  0  0
  1  7  2  0  0  0  0
  1  2  1  0  0  0  0
  2  4  1  0  0  0  0
  2  3  2  0  0  0  0
  4  5  1  0  0  0  0
  5 19  1  0  0  0  0
  5  6  2  0  0  0  0
  6 24  1  0  0  0  0
  6  7  1  0  0  0  0
  7  8  1  0  0  0  0
  9 15  1  0  0  0  0
  9 14  2  0  0  0  0
  9 10  1  0  0  0  0
 10 11  2  0  0  0  0
 10 37  1  0  0  0  0
 11 12  1  0  0  0  0
 11 38  1  0  0  0  0
 12 13  2  0  0  0  0
 12 39  1  0  0  0  0
 13 25  1  0  0  0  0
 13 14  1  0  0  0  0
 14 40  1  0  0  0  0
 15 16  1  0  0  0  0
 15 41  1  6  0  0  0
 16 18  1  0  0  0  0
 16 17  1  0  0  0  0
 16 42  1  0  0  0  0
 17 18  1  0  0  0  0
 17 43  1  0  0  0  0
 17 44  1  0  0  0  0
 18 45  1  0  0  0  0
 18 46  1  0  0  0  0
 19 20  1  0  0  0  0
 19 47  1  0  0  0  0
 19 48  1  0  0  0  0
 20 21  1  0  0  0  0
 20 49  1  0  0  0  0
 20 50  1  0  0  0  0
 21 22  1  0  0  0  0
 21 51  1  0  0  0  0
 21 52  1  0  0  0  0
 22 23  1  0  0  0  0
 22 53  1  0  0  0  0
 22 54  1  0  0  0  0
 23 24  1  0  0  0  0
 23 55  1  0  0  0  0
 23 56  1  0  0  0  0
 24 57  1  0  0  0  0
 24 58  1  0  0  0  0
 25 26  1  0  0  0  0
 25 59  1  0  0  0  0
 26 29  1  0  0  0  0
 26 28  2  0  0  0  0
 26 27  2  0  0  0  0
 29 34  2  0  0  0  0
 29 30  1  0  0  0  0
 30 31  2  0  0  0  0
 30 60  1  0  0  0  0
 31 32  1  0  0  0  0
 31 61  1  0  0  0  0
 32 35  1  0  0  0  0
 32 33  2  0  0  0  0
 33 34  1  0  0  0  0
 33 62  1  0  0  0  0
 34 63  1  0  0  0  0
 35 36  3  0  0  0  0
M  CHG  1   4   1
M  END
$$$$
