URA
 OpenBabel04041917063D

 12 12  0  0  0  0  0  0  0  0999 V2000
   23.2374    9.8567   10.5152 N   0  3  0  0  0  0  0  0  0  0  0  0
   22.3426    8.8707   10.1638 C   0  0  0  0  0  0  0  0  0  0  0  0
   21.9607    8.6598    9.0161 O   0  0  0  0  0  0  0  0  0  0  0  0
   21.8810    8.1035   11.2154 N   0  3  0  0  0  0  0  0  0  0  0  0
   22.2269    8.2270   12.5461 C   0  0  0  0  0  0  0  0  0  0  0  0
   21.7913    7.5174   13.4392 O   0  0  0  0  0  0  0  0  0  0  0  0
   23.1886    9.3141   12.8118 C   0  0  0  0  0  0  0  0  0  0  0  0
   23.6433   10.0651   11.8094 C   0  0  0  0  0  0  0  0  0  0  0  0
   23.6058   10.4485    9.7693 H   0  0  0  0  0  0  0  0  0  0  0  0
   21.2253    7.3757   10.9758 H   0  0  0  0  0  0  0  0  0  0  0  0
   23.5048    9.4741   13.8322 H   0  0  0  0  0  0  0  0  0  0  0  0
   24.3506   10.8625   12.0070 H   0  0  0  0  0  0  0  0  0  0  0  0
  1  2  1  0  0  0  0
  1  8  1  0  0  0  0
  1  9  1  0  0  0  0
  2  3  2  0  0  0  0
  2  4  1  0  0  0  0
  4  5  1  0  0  0  0
  4 10  1  0  0  0  0
  5  6  2  0  0  0  0
  5  7  1  0  0  0  0
  7  8  2  0  0  0  0
  7 11  1  0  0  0  0
  8 12  1  0  0  0  0
M  CHG  2   1   1   4   1
M  END
$$$$
