URF
 OpenBabel04041917083D

 12 12  0  0  0  0  0  0  0  0999 V2000
    9.9159   97.7895   45.3338 F   0  0  0  0  0  0  0  0  0  0  0  0
    8.7847   94.4265   45.9256 N   0  3  0  0  0  0  0  0  0  0  0  0
    9.4354   94.0509   47.0738 C   0  0  0  0  0  0  0  0  0  0  0  0
   10.2512   95.0002   47.6293 N   0  3  0  0  0  0  0  0  0  0  0  0
   10.4727   96.2592   47.1258 C   0  0  0  0  0  0  0  0  0  0  0  0
    9.7367   96.5731   45.8798 C   0  0  0  0  0  0  0  0  0  0  0  0
    8.9317   95.6570   45.3419 C   0  0  0  0  0  0  0  0  0  0  0  0
    9.2935   92.9371   47.5648 O   0  0  0  0  0  0  0  0  0  0  0  0
   11.2249   97.0599   47.6698 O   0  0  0  0  0  0  0  0  0  0  0  0
    8.1769   93.7270   45.5123 H   0  0  0  0  0  0  0  0  0  0  0  0
   10.7381   94.7493   48.4759 H   0  0  0  0  0  0  0  0  0  0  0  0
    8.3724   95.8477   44.4328 H   0  0  0  0  0  0  0  0  0  0  0  0
  1  6  1  0  0  0  0
  2  7  1  0  0  0  0
  2  3  1  0  0  0  0
  2 10  1  0  0  0  0
  3  8  2  0  0  0  0
  3  4  1  0  0  0  0
  4  5  1  0  0  0  0
  4 11  1  0  0  0  0
  5  9  2  0  0  0  0
  5  6  1  0  0  0  0
  6  7  2  0  0  0  0
  7 12  1  0  0  0  0
M  CHG  2   2   1   4   1
M  END
$$$$
