VDZ
 OpenBabel04041916433D

 74 76  0  0  1  0  0  0  0  0999 V2000
   60.7277    4.5391    2.2443 O   0  0  0  0  0  0  0  0  0  0  0  0
   60.3402    5.6684    1.4612 C   0  0  1  0  0  0  0  0  0  0  0  0
   60.8207    6.9648    2.0907 C   0  0  0  0  0  0  0  0  0  0  0  0
   61.4936    7.0649    3.2464 C   0  0  0  0  0  0  0  0  0  0  0  0
   60.4817    8.1891    1.2721 C   0  0  2  0  0  0  0  0  0  0  0  0
   59.0637    8.3717    1.2866 O   0  0  0  0  0  0  0  0  0  0  0  0
   60.9450    8.1057   -0.1852 C   0  0  0  0  0  0  0  0  0  0  0  0
   60.8985    5.5347    0.0249 C   0  0  0  0  0  0  0  0  0  0  0  0
   60.6788    6.7623   -0.8363 C   0  0  0  0  0  0  0  0  0  0  0  0
   60.3217    6.7633   -2.1354 C   0  0  0  0  0  0  0  0  0  0  0  0
   60.0345    5.6023   -2.9240 C   0  0  0  0  0  0  0  0  0  0  0  0
   60.3849    5.4445   -4.2123 C   0  0  0  0  0  0  0  0  0  0  0  0
   61.2144    6.4219   -5.0251 C   0  0  0  0  0  0  0  0  0  0  0  0
   62.5251    5.7753   -5.4912 C   0  0  0  0  0  0  0  0  0  0  0  0
   60.1296    4.1633   -4.9530 C   0  0  1  0  0  0  0  0  0  0  0  0
   61.4796    3.4433   -5.2353 C   0  0  1  0  0  0  0  0  0  0  0  0
   62.3420    4.3807   -6.1211 C   0  0  0  0  0  0  0  0  0  0  0  0
   62.2593    3.1061   -3.9394 C   0  0  0  0  0  0  0  0  0  0  0  0
   59.2416    3.0692   -4.3611 C   0  0  0  0  0  0  0  0  0  0  0  0
   59.6524    1.8159   -5.1193 C   0  0  0  0  0  0  0  0  0  0  0  0
   60.9460    2.1602   -5.9228 C   0  0  2  0  0  0  0  0  0  0  0  0
   61.8356    0.9019   -6.0152 C   0  0  1  0  0  0  0  0  0  0  0  0
   61.0495   -0.1532   -6.8335 C   0  0  0  0  0  0  0  0  0  0  0  0
   63.2483    1.1153   -6.5887 C   0  0  0  0  0  0  0  0  0  0  0  0
   64.0504   -0.1956   -6.5828 C   0  0  0  0  0  0  0  0  0  0  0  0
   65.5502    0.0058   -6.7848 C   0  0  0  0  0  0  0  0  0  0  0  0
   66.3674   -1.3075   -6.7005 C   0  0  0  0  0  0  0  0  0  0  0  0
   67.7367   -1.0675   -7.3362 C   0  0  0  0  0  0  0  0  0  0  0  0
   66.5299   -1.8264   -5.2692 C   0  0  0  0  0  0  0  0  0  0  0  0
   65.7190   -2.3514   -7.4293 O   0  0  0  0  0  0  0  0  0  0  0  0
   61.6987    4.5094    2.2640 H   0  0  0  0  0  0  0  0  0  0  0  0
   59.2458    5.6637    1.4370 H   0  0  0  0  0  0  0  0  0  0  0  0
   61.8221    8.0280    3.6289 H   0  0  0  0  0  0  0  0  0  0  0  0
   61.7264    6.1977    3.8560 H   0  0  0  0  0  0  0  0  0  0  0  0
   60.9187    9.0941    1.7164 H   0  0  0  0  0  0  0  0  0  0  0  0
   58.7884    8.2801    2.2139 H   0  0  0  0  0  0  0  0  0  0  0  0
   62.0175    8.3188   -0.2556 H   0  0  0  0  0  0  0  0  0  0  0  0
   60.4203    8.8893   -0.7476 H   0  0  0  0  0  0  0  0  0  0  0  0
   60.4743    4.6250   -0.4128 H   0  0  0  0  0  0  0  0  0  0  0  0
   61.9800    5.3425    0.0910 H   0  0  0  0  0  0  0  0  0  0  0  0
   60.2627    7.7162   -2.6613 H   0  0  0  0  0  0  0  0  0  0  0  0
   59.5172    4.8098   -2.3979 H   0  0  0  0  0  0  0  0  0  0  0  0
   61.4639    7.3279   -4.4659 H   0  0  0  0  0  0  0  0  0  0  0  0
   60.6300    6.7508   -5.8951 H   0  0  0  0  0  0  0  0  0  0  0  0
   63.2035    5.6959   -4.6295 H   0  0  0  0  0  0  0  0  0  0  0  0
   63.0263    6.4400   -6.2033 H   0  0  0  0  0  0  0  0  0  0  0  0
   59.6533    4.4430   -5.9078 H   0  0  0  0  0  0  0  0  0  0  0  0
   63.3345    3.9552   -6.2896 H   0  0  0  0  0  0  0  0  0  0  0  0
   61.8836    4.5000   -7.1114 H   0  0  0  0  0  0  0  0  0  0  0  0
   61.7093    2.4223   -3.2893 H   0  0  0  0  0  0  0  0  0  0  0  0
   62.4919    3.9971   -3.3492 H   0  0  0  0  0  0  0  0  0  0  0  0
   63.2199    2.6375   -4.1629 H   0  0  0  0  0  0  0  0  0  0  0  0
   58.1745    3.2827   -4.4893 H   0  0  0  0  0  0  0  0  0  0  0  0
   59.4103    2.9039   -3.2904 H   0  0  0  0  0  0  0  0  0  0  0  0
   58.8535    1.4889   -5.7938 H   0  0  0  0  0  0  0  0  0  0  0  0
   59.8197    1.0048   -4.3992 H   0  0  0  0  0  0  0  0  0  0  0  0
   60.6332    2.4350   -6.9418 H   0  0  0  0  0  0  0  0  0  0  0  0
   61.9598    0.4906   -5.0054 H   0  0  0  0  0  0  0  0  0  0  0  0
   61.5947   -1.0931   -6.9436 H   0  0  0  0  0  0  0  0  0  0  0  0
   60.8130    0.2301   -7.8336 H   0  0  0  0  0  0  0  0  0  0  0  0
   60.1080   -0.4130   -6.3447 H   0  0  0  0  0  0  0  0  0  0  0  0
   63.7942    1.8362   -5.9790 H   0  0  0  0  0  0  0  0  0  0  0  0
   63.1991    1.5329   -7.6011 H   0  0  0  0  0  0  0  0  0  0  0  0
   63.6766   -0.8362   -7.3879 H   0  0  0  0  0  0  0  0  0  0  0  0
   63.8824   -0.7156   -5.6342 H   0  0  0  0  0  0  0  0  0  0  0  0
   65.9428    0.7310   -6.0602 H   0  0  0  0  0  0  0  0  0  0  0  0
   65.6868    0.4530   -7.7785 H   0  0  0  0  0  0  0  0  0  0  0  0
   68.3549   -1.9699   -7.3001 H   0  0  0  0  0  0  0  0  0  0  0  0
   68.2725   -0.2504   -6.8405 H   0  0  0  0  0  0  0  0  0  0  0  0
   67.6245   -0.8117   -8.3966 H   0  0  0  0  0  0  0  0  0  0  0  0
   65.5614   -2.0439   -4.8060 H   0  0  0  0  0  0  0  0  0  0  0  0
   67.0740   -1.1252   -4.6303 H   0  0  0  0  0  0  0  0  0  0  0  0
   67.0745   -2.7808   -5.2706 H   0  0  0  0  0  0  0  0  0  0  0  0
   65.6004   -2.0485   -8.3444 H   0  0  0  0  0  0  0  0  0  0  0  0
  1  2  1  0  0  0  0
  1 31  1  0  0  0  0
  2  3  1  0  0  0  0
  2  8  1  0  0  0  0
  2 32  1  6  0  0  0
  3  4  2  0  0  0  0
  3  5  1  0  0  0  0
  4 33  1  0  0  0  0
  4 34  1  0  0  0  0
  5  6  1  0  0  0  0
  5  7  1  0  0  0  0
  5 35  1  1  0  0  0
  6 36  1  0  0  0  0
  7  9  1  0  0  0  0
  7 37  1  0  0  0  0
  7 38  1  0  0  0  0
  8  9  1  0  0  0  0
  8 39  1  0  0  0  0
  8 40  1  0  0  0  0
  9 10  2  0  0  0  0
 10 11  1  0  0  0  0
 10 41  1  0  0  0  0
 11 12  2  0  0  0  0
 11 42  1  0  0  0  0
 12 13  1  0  0  0  0
 12 15  1  0  0  0  0
 13 14  1  0  0  0  0
 13 43  1  0  0  0  0
 13 44  1  0  0  0  0
 14 17  1  0  0  0  0
 14 45  1  0  0  0  0
 14 46  1  0  0  0  0
 15 16  1  0  0  0  0
 15 19  1  0  0  0  0
 15 47  1  6  0  0  0
 16 17  1  0  0  0  0
 16 18  1  1  0  0  0
 16 21  1  0  0  0  0
 17 48  1  0  0  0  0
 17 49  1  0  0  0  0
 18 50  1  0  0  0  0
 18 51  1  0  0  0  0
 18 52  1  0  0  0  0
 19 20  1  0  0  0  0
 19 53  1  0  0  0  0
 19 54  1  0  0  0  0
 20 21  1  0  0  0  0
 20 55  1  0  0  0  0
 20 56  1  0  0  0  0
 21 22  1  0  0  0  0
 21 57  1  6  0  0  0
 22 23  1  0  0  0  0
 22 24  1  0  0  0  0
 22 58  1  1  0  0  0
 23 59  1  0  0  0  0
 23 60  1  0  0  0  0
 23 61  1  0  0  0  0
 24 25  1  0  0  0  0
 24 62  1  0  0  0  0
 24 63  1  0  0  0  0
 25 26  1  0  0  0  0
 25 64  1  0  0  0  0
 25 65  1  0  0  0  0
 26 27  1  0  0  0  0
 26 66  1  0  0  0  0
 26 67  1  0  0  0  0
 27 28  1  0  0  0  0
 27 29  1  0  0  0  0
 27 30  1  0  0  0  0
 28 68  1  0  0  0  0
 28 69  1  0  0  0  0
 28 70  1  0  0  0  0
 29 71  1  0  0  0  0
 29 72  1  0  0  0  0
 29 73  1  0  0  0  0
 30 74  1  0  0  0  0
M  END
$$$$
