VSO
 OpenBabel04041916463D

  9  8  0  0  0  0  0  0  0  0999 V2000
   84.8151   -7.4354    8.2064 O   0  0  0  0  0  0  0  0  0  0  0  0
   85.7387   -6.3025    8.2790 S   0  0  0  0  0  0  0  0  0  0  0  0
   86.5694   -6.3686    6.7276 C   0  0  0  0  0  0  0  0  0  0  0  0
   87.5303   -5.4819    6.4359 C   0  0  0  0  0  0  0  0  0  0  0  0
   86.8125   -6.4548    9.2562 O   0  0  0  0  0  0  0  0  0  0  0  0
   85.0904   -4.9916    8.2825 O   0  0  0  0  0  0  0  0  0  0  0  0
   86.2717   -7.1581    6.0570 H   0  0  0  0  0  0  0  0  0  0  0  0
   88.0499   -5.5297    5.4886 H   0  0  0  0  0  0  0  0  0  0  0  0
   87.8018   -4.7110    7.1508 H   0  0  0  0  0  0  0  0  0  0  0  0
  1  2  2  0  0  0  0
  2  3  1  0  0  0  0
  2  5  2  0  0  0  0
  2  6  1  0  0  0  0
  3  4  2  0  0  0  0
  3  7  1  0  0  0  0
  4  8  1  0  0  0  0
  4  9  1  0  0  0  0
M  END
$$$$
