VWW
 OpenBabel04041913513D

 59 60  0  0  1  0  0  0  0  0999 V2000
   15.0651   10.8133   23.5577 N   0  3  0  0  0  0  0  0  0  0  0  0
   15.0229    9.9665   24.8151 C   0  0  2  0  0  0  0  0  0  0  0  0
   16.1337    8.8689   24.8371 C   0  0  0  0  0  0  0  0  0  0  0  0
   16.5233    8.5361   25.9819 O   0  0  0  0  0  0  0  0  0  0  0  0
   13.6433    9.3265   24.9002 C   0  0  0  0  0  0  0  0  0  0  0  0
   13.4022    8.7146   26.2783 C   0  0  0  0  0  0  0  0  0  0  0  0
   12.0410    8.0771   26.3753 C   0  0  0  0  0  0  0  0  0  0  0  0
   11.2961    7.9417   25.3995 O   0  0  0  0  0  0  0  0  0  0  0  0
   16.5493    8.5863   23.6731 O   0  0  0  0  0  0  0  0  0  0  0  0
   11.7477    7.6409   27.6145 N   0  0  0  0  0  0  0  0  0  0  0  0
   10.4850    6.9654   27.9126 C   0  0  1  0  0  0  0  0  0  0  0  0
   10.7213    5.4901   28.2202 C   0  0  0  0  0  0  0  0  0  0  0  0
   11.3105    4.5073   26.7961 S   0  0  0  0  0  0  0  0  0  0  0  0
    9.7236    3.8042   26.2578 C   0  0  0  0  0  0  0  0  0  0  0  0
    8.9255    3.1557   27.3596 C   0  0  0  0  0  0  0  0  0  0  0  0
    7.6301    3.6096   27.6426 C   0  0  0  0  0  0  0  0  0  0  0  0
    9.4646    2.1178   28.1301 C   0  0  0  0  0  0  0  0  0  0  0  0
    6.8890    3.0335   28.6727 C   0  0  0  0  0  0  0  0  0  0  0  0
    8.7235    1.5449   29.1614 C   0  0  0  0  0  0  0  0  0  0  0  0
    7.4348    2.0001   29.4303 C   0  0  0  0  0  0  0  0  0  0  0  0
    9.8645    7.5845   29.1642 C   0  0  0  0  0  0  0  0  0  0  0  0
   10.5585    8.0234   30.0832 O   0  0  0  0  0  0  0  0  0  0  0  0
    8.5084    7.4055   29.2425 N   0  0  0  0  0  0  0  0  0  0  0  0
    7.7610    7.9398   30.3857 C   0  0  2  0  0  0  0  0  0  0  0  0
    6.5504    7.0640   30.6244 C   0  0  0  0  0  0  0  0  0  0  0  0
    5.3207    7.3161   30.0118 C   0  0  0  0  0  0  0  0  0  0  0  0
    6.6836    5.9305   31.4420 C   0  0  0  0  0  0  0  0  0  0  0  0
    4.2432    6.4568   30.2157 C   0  0  0  0  0  0  0  0  0  0  0  0
    5.6070    5.0727   31.6445 C   0  0  0  0  0  0  0  0  0  0  0  0
    4.3869    5.3335   31.0275 C   0  0  0  0  0  0  0  0  0  0  0  0
    7.4469    9.4696   30.3632 C   0  0  0  0  0  0  0  0  0  0  0  0
    7.0981    9.9668   31.4782 O   0  0  0  0  0  0  0  0  0  0  0  0
    7.5646   10.0476   29.2390 O   0  0  0  0  0  0  0  0  0  0  0  0
   16.0105   11.2067   23.4767 H   0  0  0  0  0  0  0  0  0  0  0  0
   14.9653   10.1752   22.7534 H   0  0  0  0  0  0  0  0  0  0  0  0
   15.1624   10.6722   25.6405 H   0  0  0  0  0  0  0  0  0  0  0  0
   13.5448    8.5461   24.1349 H   0  0  0  0  0  0  0  0  0  0  0  0
   12.8636   10.0776   24.7133 H   0  0  0  0  0  0  0  0  0  0  0  0
   13.4735    9.4937   27.0425 H   0  0  0  0  0  0  0  0  0  0  0  0
   14.1508    7.9424   26.4762 H   0  0  0  0  0  0  0  0  0  0  0  0
   12.3700    7.8106   28.4028 H   0  0  0  0  0  0  0  0  0  0  0  0
    9.7826    7.0803   27.0805 H   0  0  0  0  0  0  0  0  0  0  0  0
    9.8042    5.0522   28.6091 H   0  0  0  0  0  0  0  0  0  0  0  0
   11.4801    5.3952   29.0046 H   0  0  0  0  0  0  0  0  0  0  0  0
    9.9379    3.0455   25.4988 H   0  0  0  0  0  0  0  0  0  0  0  0
    9.1356    4.5981   25.7874 H   0  0  0  0  0  0  0  0  0  0  0  0
    7.1981    4.4245   27.0668 H   0  0  0  0  0  0  0  0  0  0  0  0
   10.4744    1.7676   27.9314 H   0  0  0  0  0  0  0  0  0  0  0  0
    5.8877    3.3971   28.8844 H   0  0  0  0  0  0  0  0  0  0  0  0
    9.1529    0.7427   29.7527 H   0  0  0  0  0  0  0  0  0  0  0  0
    6.8554    1.5500   30.2309 H   0  0  0  0  0  0  0  0  0  0  0  0
    7.9843    7.0937   28.4368 H   0  0  0  0  0  0  0  0  0  0  0  0
    8.4129    7.8084   31.2546 H   0  0  0  0  0  0  0  0  0  0  0  0
    5.2047    8.1977   29.3861 H   0  0  0  0  0  0  0  0  0  0  0  0
    7.6366    5.7268   31.9256 H   0  0  0  0  0  0  0  0  0  0  0  0
    3.2928    6.6706   29.7390 H   0  0  0  0  0  0  0  0  0  0  0  0
    5.7263    4.2024   32.2799 H   0  0  0  0  0  0  0  0  0  0  0  0
    3.5474    4.6647   31.1810 H   0  0  0  0  0  0  0  0  0  0  0  0
   14.3522   11.5419   23.5585 H   0  0  0  0  0  0  0  0  0  0  0  0
  1  2  1  0  0  0  0
  1 34  1  0  0  0  0
  1 35  1  0  0  0  0
  1 59  1  0  0  0  0
  2  5  1  0  0  0  0
  2  3  1  0  0  0  0
  2 36  1  1  0  0  0
  3  4  2  0  0  0  0
  3  9  1  0  0  0  0
  5  6  1  0  0  0  0
  5 37  1  0  0  0  0
  5 38  1  0  0  0  0
  6  7  1  0  0  0  0
  6 39  1  0  0  0  0
  6 40  1  0  0  0  0
  7  8  2  0  0  0  0
  7 10  1  0  0  0  0
 10 11  1  0  0  0  0
 10 41  1  0  0  0  0
 11 12  1  0  0  0  0
 11 21  1  0  0  0  0
 11 42  1  6  0  0  0
 12 13  1  0  0  0  0
 12 43  1  0  0  0  0
 12 44  1  0  0  0  0
 13 14  1  0  0  0  0
 14 15  1  0  0  0  0
 14 45  1  0  0  0  0
 14 46  1  0  0  0  0
 15 16  2  0  0  0  0
 15 17  1  0  0  0  0
 16 18  1  0  0  0  0
 16 47  1  0  0  0  0
 17 19  2  0  0  0  0
 17 48  1  0  0  0  0
 18 20  2  0  0  0  0
 18 49  1  0  0  0  0
 19 20  1  0  0  0  0
 19 50  1  0  0  0  0
 20 51  1  0  0  0  0
 21 22  2  0  0  0  0
 21 23  1  0  0  0  0
 23 24  1  0  0  0  0
 23 52  1  0  0  0  0
 24 25  1  0  0  0  0
 24 31  1  0  0  0  0
 24 53  1  1  0  0  0
 25 26  2  0  0  0  0
 25 27  1  0  0  0  0
 26 28  1  0  0  0  0
 26 54  1  0  0  0  0
 27 29  2  0  0  0  0
 27 55  1  0  0  0  0
 28 30  2  0  0  0  0
 28 56  1  0  0  0  0
 29 30  1  0  0  0  0
 29 57  1  0  0  0  0
 30 58  1  0  0  0  0
 31 32  2  0  0  0  0
 31 33  1  0  0  0  0
M  CHG  1   1   1
M  END
$$$$
