X8Z
 OpenBabel04041915093D

 28 28  0  0  1  0  0  0  0  0999 V2000
   15.3850   -1.2905   17.5862 O   0  0  0  0  0  0  0  0  0  0  0  0
   14.8299   -2.4161   17.7600 C   0  0  0  0  0  0  0  0  0  0  0  0
   14.9961   -3.4986   17.1204 O   0  0  0  0  0  0  0  0  0  0  0  0
   13.8976   -2.4959   19.0108 C   0  0  2  0  0  0  0  0  0  0  0  0
   14.8082   -2.7806   20.2041 C   0  0  0  0  0  0  0  0  0  0  0  0
   14.2631   -4.0222   20.8972 C   0  0  0  0  0  0  0  0  0  0  0  0
   13.0869   -4.5164   20.0761 C   0  0  0  0  0  0  0  0  0  0  0  0
   12.8620   -3.5446   19.0345 N   0  0  0  0  0  0  0  0  0  0  0  0
   11.8621   -3.5437   18.0858 C   0  0  0  0  0  0  0  0  0  0  0  0
   11.7376   -2.6347   17.2638 O   0  0  0  0  0  0  0  0  0  0  0  0
   10.8453   -4.6866   18.1066 C   0  0  2  0  0  0  0  0  0  0  0  0
   11.1114   -5.6253   16.9308 C   0  0  0  0  0  0  0  0  0  0  0  0
    9.4633   -4.0147   18.0651 C   0  0  0  0  0  0  0  0  0  0  0  0
    8.0436   -5.1612   18.0457 S   0  0  0  0  0  0  0  0  0  0  0  0
   13.3850   -1.5333   19.1310 H   0  0  0  0  0  0  0  0  0  0  0  0
   14.8012   -1.9311   20.8975 H   0  0  0  0  0  0  0  0  0  0  0  0
   15.8560   -2.9385   19.9206 H   0  0  0  0  0  0  0  0  0  0  0  0
   13.9471   -3.7799   21.9186 H   0  0  0  0  0  0  0  0  0  0  0  0
   15.0311   -4.7987   20.9830 H   0  0  0  0  0  0  0  0  0  0  0  0
   12.1881   -4.5859   20.6974 H   0  0  0  0  0  0  0  0  0  0  0  0
   13.2791   -5.4953   19.6289 H   0  0  0  0  0  0  0  0  0  0  0  0
   10.9204   -5.2660   19.0307 H   0  0  0  0  0  0  0  0  0  0  0  0
   10.4133   -6.4692   16.9220 H   0  0  0  0  0  0  0  0  0  0  0  0
   12.1230   -6.0437   16.9866 H   0  0  0  0  0  0  0  0  0  0  0  0
   11.0229   -5.1034   15.9714 H   0  0  0  0  0  0  0  0  0  0  0  0
    9.3657   -3.3659   17.1873 H   0  0  0  0  0  0  0  0  0  0  0  0
    9.3516   -3.3732   18.9470 H   0  0  0  0  0  0  0  0  0  0  0  0
    8.3202   -5.7736   19.2032 H   0  0  0  0  0  0  0  0  0  0  0  0
  1  2  2  0  0  0  0
  2  3  1  0  0  0  0
  2  4  1  0  0  0  0
  4  5  1  0  0  0  0
  4  8  1  0  0  0  0
  4 15  1  1  0  0  0
  5  6  1  0  0  0  0
  5 16  1  0  0  0  0
  5 17  1  0  0  0  0
  6  7  1  0  0  0  0
  6 18  1  0  0  0  0
  6 19  1  0  0  0  0
  7  8  1  0  0  0  0
  7 20  1  0  0  0  0
  7 21  1  0  0  0  0
  8  9  1  0  0  0  0
  9 10  2  0  0  0  0
  9 11  1  0  0  0  0
 11 12  1  0  0  0  0
 11 13  1  0  0  0  0
 11 22  1  1  0  0  0
 12 23  1  0  0  0  0
 12 24  1  0  0  0  0
 12 25  1  0  0  0  0
 13 14  1  0  0  0  0
 13 26  1  0  0  0  0
 13 27  1  0  0  0  0
 14 28  1  0  0  0  0
M  END
$$$$
