XLD
 OpenBabel04041915463D

 57 60  0  0  0  0  0  0  0  0999 V2000
    9.4638    7.9064   25.7085 C   0  0  0  0  0  0  0  0  0  0  0  0
   10.3922    8.4117   24.8614 N   0  0  0  0  0  0  0  0  0  0  0  0
   11.7074    8.3815   25.2226 C   0  0  0  0  0  0  0  0  0  0  0  0
   12.1498    7.8407   26.4175 C   0  0  0  0  0  0  0  0  0  0  0  0
   13.8320    7.7234   26.7691 Cl  0  0  0  0  0  0  0  0  0  0  0  0
   11.1834    7.3493   27.3039 C   0  0  0  0  0  0  0  0  0  0  0  0
    9.8197    7.3830   26.9599 C   0  0  0  0  0  0  0  0  0  0  0  0
    8.1038    7.9416   25.3922 N   0  0  0  0  0  0  0  0  0  0  0  0
    7.5784    7.9687   24.0910 C   0  0  0  0  0  0  0  0  0  0  0  0
    8.2226    7.9138   23.0832 O   0  0  0  0  0  0  0  0  0  0  0  0
    6.0760    8.0553   24.0004 C   0  0  0  0  0  0  0  0  0  0  0  0
    5.2873    7.3453   23.0468 C   0  0  0  0  0  0  0  0  0  0  0  0
    3.8642    7.5103   23.0246 C   0  0  0  0  0  0  0  0  0  0  0  0
    3.2696    8.3663   23.9516 C   0  0  0  0  0  0  0  0  0  0  0  0
    4.0619    9.0398   24.8923 C   0  0  0  0  0  0  0  0  0  0  0  0
    3.3516   10.0925   26.0624 Cl  0  0  0  0  0  0  0  0  0  0  0  0
    5.4429    8.8891   24.9190 C   0  0  0  0  0  0  0  0  0  0  0  0
    3.1862    6.8146   22.0465 O   0  0  0  0  0  0  0  0  0  0  0  0
    1.7623    6.8579   21.8685 C   0  0  0  0  0  0  0  0  0  0  0  0
    5.9123    6.4875   22.0965 N   0  0  0  0  0  0  0  0  0  0  0  0
    5.7027    5.1135   22.0527 C   0  0  0  0  0  0  0  0  0  0  0  0
    4.9427    4.5984   22.8305 O   0  0  0  0  0  0  0  0  0  0  0  0
    6.4677    4.3206   21.0878 C   0  0  0  0  0  0  0  0  0  0  0  0
    6.2775    2.5950   21.1775 S   0  0  0  0  0  0  0  0  0  0  0  0
    7.3708    2.3520   19.9099 C   0  0  0  0  0  0  0  0  0  0  0  0
    7.9052    3.5046   19.3887 C   0  0  0  0  0  0  0  0  0  0  0  0
    7.3554    4.6498   20.0862 C   0  0  0  0  0  0  0  0  0  0  0  0
    7.8304    6.2423   19.6430 Cl  0  0  0  0  0  0  0  0  0  0  0  0
    8.9285    3.6141   18.2719 C   0  0  0  0  0  0  0  0  0  0  0  0
    9.2537    2.3105   17.5976 N   0  0  0  0  0  0  0  0  0  0  0  0
   10.0211    1.2978   18.3757 C   0  0  0  0  0  0  0  0  0  0  0  0
    8.5249    1.9263   16.5517 C   0  0  0  0  0  0  0  0  0  0  0  0
    7.5585    2.6497   16.0234 N   0  0  0  0  0  0  0  0  0  0  0  0
    6.8254    1.9108   15.0204 C   0  0  0  0  0  0  0  0  0  0  0  0
    7.5240    0.5792   15.0391 C   0  0  0  0  0  0  0  0  0  0  0  0
    8.5809    0.6837   16.0512 O   0  0  0  0  0  0  0  0  0  0  0  0
   12.4035    8.8052   24.4942 H   0  0  0  0  0  0  0  0  0  0  0  0
   11.4826    6.9352   28.2639 H   0  0  0  0  0  0  0  0  0  0  0  0
    9.0716    6.9820   27.6419 H   0  0  0  0  0  0  0  0  0  0  0  0
    7.4572    7.9372   26.1616 H   0  0  0  0  0  0  0  0  0  0  0  0
    2.1977    8.5120   23.9562 H   0  0  0  0  0  0  0  0  0  0  0  0
    6.0251    9.4423   25.6538 H   0  0  0  0  0  0  0  0  0  0  0  0
    1.5159    6.1857   21.0228 H   0  0  0  0  0  0  0  0  0  0  0  0
    1.4225    7.8630   21.5990 H   0  0  0  0  0  0  0  0  0  0  0  0
    1.2249    6.4915   22.7487 H   0  0  0  0  0  0  0  0  0  0  0  0
    6.6027    6.9175   21.4935 H   0  0  0  0  0  0  0  0  0  0  0  0
    7.5908    1.3627   19.5745 H   0  0  0  0  0  0  0  0  0  0  0  0
    9.8123    4.1094   18.6874 H   0  0  0  0  0  0  0  0  0  0  0  0
    8.4806    4.2678   17.5242 H   0  0  0  0  0  0  0  0  0  0  0  0
   10.3455    0.4707   17.7497 H   0  0  0  0  0  0  0  0  0  0  0  0
    9.3133    0.9002   19.0962 H   0  0  0  0  0  0  0  0  0  0  0  0
   10.8746    1.7001   18.9402 H   0  0  0  0  0  0  0  0  0  0  0  0
    6.9126    2.4218   14.0585 H   0  0  0  0  0  0  0  0  0  0  0  0
    5.7717    1.8395   15.3069 H   0  0  0  0  0  0  0  0  0  0  0  0
    7.9585    0.3403   14.0547 H   0  0  0  0  0  0  0  0  0  0  0  0
    6.8277   -0.2363   15.2966 H   0  0  0  0  0  0  0  0  0  0  0  0
    7.3386    3.5979   16.2810 H   0  0  0  0  0  0  0  0  0  0  0  0
  1  2  2  0  0  0  0
  1  7  1  0  0  0  0
  1  8  1  0  0  0  0
  2  3  1  0  0  0  0
  3  4  2  0  0  0  0
  3 37  1  0  0  0  0
  4  5  1  0  0  0  0
  4  6  1  0  0  0  0
  6  7  2  0  0  0  0
  6 38  1  0  0  0  0
  7 39  1  0  0  0  0
  8  9  1  0  0  0  0
  8 40  1  0  0  0  0
  9 10  2  0  0  0  0
  9 11  1  0  0  0  0
 11 12  2  0  0  0  0
 11 17  1  0  0  0  0
 12 13  1  0  0  0  0
 12 20  1  0  0  0  0
 13 14  2  0  0  0  0
 13 18  1  0  0  0  0
 14 15  1  0  0  0  0
 14 41  1  0  0  0  0
 15 16  1  0  0  0  0
 15 17  2  0  0  0  0
 17 42  1  0  0  0  0
 18 19  1  0  0  0  0
 19 43  1  0  0  0  0
 19 44  1  0  0  0  0
 19 45  1  0  0  0  0
 20 21  1  0  0  0  0
 20 46  1  0  0  0  0
 21 22  2  0  0  0  0
 21 23  1  0  0  0  0
 23 24  1  0  0  0  0
 23 27  2  0  0  0  0
 24 25  1  0  0  0  0
 25 26  2  0  0  0  0
 25 47  1  0  0  0  0
 26 27  1  0  0  0  0
 26 29  1  0  0  0  0
 27 28  1  0  0  0  0
 29 30  1  0  0  0  0
 29 48  1  0  0  0  0
 29 49  1  0  0  0  0
 30 31  1  0  0  0  0
 30 32  1  0  0  0  0
 31 50  1  0  0  0  0
 31 51  1  0  0  0  0
 31 52  1  0  0  0  0
 32 33  2  0  0  0  0
 32 36  1  0  0  0  0
 33 34  1  0  0  0  0
 33 57  1  0  0  0  0
 34 35  1  0  0  0  0
 34 53  1  0  0  0  0
 34 54  1  0  0  0  0
 35 36  1  0  0  0  0
 35 55  1  0  0  0  0
 35 56  1  0  0  0  0
M  END
$$$$
