XN2
 OpenBabel04041915173D

100105  0  0  1  0  0  0  0  0999 V2000
    3.1662   -5.2805   16.2702 N   0  0  0  0  0  0  0  0  0  0  0  0
    4.5396   -5.1984   15.7276 C   0  0  0  0  0  0  0  0  0  0  0  0
    5.3223   -4.0328   16.3225 C   0  0  1  0  0  0  0  0  0  0  0  0
    6.7329   -4.0257   15.5945 C   0  0  0  0  0  0  0  0  0  0  0  0
    6.8097   -3.7018   14.4674 O   0  0  0  0  0  0  0  0  0  0  0  0
    7.7786   -4.4756   16.4286 N   0  0  0  0  0  0  0  0  0  0  0  0
    9.2268   -4.5957   16.0732 C   0  0  0  0  0  0  0  0  0  0  0  0
   10.0324   -5.0809   17.2873 C   0  0  0  0  0  0  0  0  0  0  0  0
    9.8384   -3.2616   15.7341 C   0  0  0  0  0  0  0  0  0  0  0  0
    9.5125   -5.5231   14.9071 C   0  0  0  0  0  0  0  0  0  0  0  0
    4.4942   -2.7422   16.0237 N   0  3  1  0  0  0  0  0  0  0  0  0
    3.0206   -2.7976   16.4383 C   0  0  0  0  0  0  0  0  0  0  0  0
    2.4078   -4.0661   15.8698 C   0  0  0  0  0  0  0  0  0  0  0  0
    5.1163   -1.5421   16.5528 C   0  0  0  0  0  0  0  0  0  0  0  0
    5.0423   -0.3801   15.5725 C   0  0  1  0  0  0  0  0  0  0  0  0
    5.1473    0.7129   16.4749 O   0  0  0  0  0  0  0  0  0  0  0  0
    6.2315   -0.2502   14.6341 C   0  0  0  0  0  0  0  0  0  0  0  0
    6.1643    0.8572   13.5631 C   0  0  1  0  0  0  0  0  0  0  0  0
    7.4788    0.9021   12.6883 C   0  0  1  0  0  0  0  0  0  0  0  0
    7.4957    2.0271   11.6137 C   0  0  0  0  0  0  0  0  0  0  0  0
    7.3459    3.4215   11.9235 C   0  0  0  0  0  0  0  0  0  0  0  0
    7.3122    4.3759   10.8633 C   0  0  0  0  0  0  0  0  0  0  0  0
    7.4664    3.9327    9.5172 C   0  0  0  0  0  0  0  0  0  0  0  0
    7.6645    2.5487    9.2236 C   0  0  0  0  0  0  0  0  0  0  0  0
    7.6967    1.6015   10.2679 C   0  0  0  0  0  0  0  0  0  0  0  0
    5.0067    0.5316   12.5257 C   0  0  0  0  0  0  0  0  0  0  0  0
    4.6969   -0.5255   12.0957 O   0  0  0  0  0  0  0  0  0  0  0  0
    4.4000    1.7647   12.1863 N   0  0  0  0  0  0  0  0  0  0  0  0
    3.3866    1.8608   11.1538 C   0  0  2  0  0  0  0  0  0  0  0  0
    3.4333    3.2658   10.5118 C   0  0  2  0  0  0  0  0  0  0  0  0
    3.6950    4.2787   11.5077 O   0  0  0  0  0  0  0  0  0  0  0  0
    2.0548    3.4047    9.8257 C   0  0  0  0  0  0  0  0  0  0  0  0
    1.1117    2.6441   10.7591 C   0  0  0  0  0  0  0  0  0  0  0  0
   -0.3046    2.7235   10.8718 C   0  0  0  0  0  0  0  0  0  0  0  0
   -0.9173    1.8779   11.8318 C   0  0  0  0  0  0  0  0  0  0  0  0
   -0.1324    0.9765   12.6326 C   0  0  0  0  0  0  0  0  0  0  0  0
    1.2762    0.9092   12.4882 C   0  0  0  0  0  0  0  0  0  0  0  0
    1.8914    1.7597   11.5514 C   0  0  0  0  0  0  0  0  0  0  0  0
    2.4376   -6.4508   15.6875 C   0  0  0  0  0  0  0  0  0  0  0  0
    2.9954   -7.8520   16.0628 C   0  0  0  0  0  0  0  0  0  0  0  0
    2.7834   -8.3334   17.3989 C   0  0  0  0  0  0  0  0  0  0  0  0
    3.9822  -10.4193   16.8478 C   0  0  0  0  0  0  0  0  0  0  0  0
    4.2023   -9.9797   15.5371 C   0  0  0  0  0  0  0  0  0  0  0  0
    3.7164   -8.6907   15.1091 C   0  0  0  0  0  0  0  0  0  0  0  0
    4.5236  -11.6742   17.0756 O   0  0  0  0  0  0  0  0  0  0  0  0
    5.1339  -12.0578   15.7980 C   0  0  0  0  0  0  0  0  0  0  0  0
    4.9226  -10.9598   14.8199 O   0  0  0  0  0  0  0  0  0  0  0  0
    3.2753   -9.6181   17.7994 C   0  0  0  0  0  0  0  0  0  0  0  0
    8.8465    0.9110   13.2819 C   0  0  0  0  0  0  0  0  0  0  0  0
    4.5190   -5.0549   14.6364 H   0  0  0  0  0  0  0  0  0  0  0  0
    5.1095   -6.1119   15.9313 H   0  0  0  0  0  0  0  0  0  0  0  0
    5.4832   -4.1029   17.4073 H   0  0  0  0  0  0  0  0  0  0  0  0
    7.5850   -4.7013   17.3736 H   0  0  0  0  0  0  0  0  0  0  0  0
   11.0997   -5.1646   17.0371 H   0  0  0  0  0  0  0  0  0  0  0  0
    9.6740   -6.0558   17.6135 H   0  0  0  0  0  0  0  0  0  0  0  0
    9.9410   -4.3711   18.1158 H   0  0  0  0  0  0  0  0  0  0  0  0
   10.9034   -3.4313   15.4863 H   0  0  0  0  0  0  0  0  0  0  0  0
    9.7689   -2.6185   16.6101 H   0  0  0  0  0  0  0  0  0  0  0  0
    9.3240   -2.8350   14.8804 H   0  0  0  0  0  0  0  0  0  0  0  0
   10.5930   -5.5519   14.7054 H   0  0  0  0  0  0  0  0  0  0  0  0
    9.0099   -5.1732   14.0022 H   0  0  0  0  0  0  0  0  0  0  0  0
    9.1774   -6.5310   15.1499 H   0  0  0  0  0  0  0  0  0  0  0  0
    2.5240   -1.9027   16.0364 H   0  0  0  0  0  0  0  0  0  0  0  0
    2.9623   -2.7650   17.5326 H   0  0  0  0  0  0  0  0  0  0  0  0
    1.3632   -4.1211   16.2124 H   0  0  0  0  0  0  0  0  0  0  0  0
    2.4052   -3.9885   14.7760 H   0  0  0  0  0  0  0  0  0  0  0  0
    6.1507   -1.7209   16.8421 H   0  0  0  0  0  0  0  0  0  0  0  0
    4.5624   -1.2603   17.4638 H   0  0  0  0  0  0  0  0  0  0  0  0
    4.0877   -0.3959   15.0086 H   0  0  0  0  0  0  0  0  0  0  0  0
    4.4627    0.6012   17.1559 H   0  0  0  0  0  0  0  0  0  0  0  0
    6.3897   -1.1964   14.1235 H   0  0  0  0  0  0  0  0  0  0  0  0
    7.0844   -0.0125   15.2823 H   0  0  0  0  0  0  0  0  0  0  0  0
    5.9944    1.8197   14.0652 H   0  0  0  0  0  0  0  0  0  0  0  0
    7.5056   -0.1142   12.2389 H   0  0  0  0  0  0  0  0  0  0  0  0
    7.2215    3.7790   12.9619 H   0  0  0  0  0  0  0  0  0  0  0  0
    7.1608    5.4508   11.0848 H   0  0  0  0  0  0  0  0  0  0  0  0
    7.4418    4.6524    8.6885 H   0  0  0  0  0  0  0  0  0  0  0  0
    7.7876    2.2026    8.1835 H   0  0  0  0  0  0  0  0  0  0  0  0
    7.8481    0.5325   10.0372 H   0  0  0  0  0  0  0  0  0  0  0  0
    4.7643    2.6176   12.5743 H   0  0  0  0  0  0  0  0  0  0  0  0
    3.6167    1.1271   10.3707 H   0  0  0  0  0  0  0  0  0  0  0  0
    4.2420    3.3300    9.7770 H   0  0  0  0  0  0  0  0  0  0  0  0
    3.6991    5.1439   11.0545 H   0  0  0  0  0  0  0  0  0  0  0  0
    2.1329    2.8948    8.8533 H   0  0  0  0  0  0  0  0  0  0  0  0
    1.8234    4.4652    9.6929 H   0  0  0  0  0  0  0  0  0  0  0  0
   -0.9293    3.4067   10.2709 H   0  0  0  0  0  0  0  0  0  0  0  0
   -2.0080    1.8996   11.9775 H   0  0  0  0  0  0  0  0  0  0  0  0
   -0.6236    0.3241   13.3707 H   0  0  0  0  0  0  0  0  0  0  0  0
    1.8620    0.2199   13.0917 H   0  0  0  0  0  0  0  0  0  0  0  0
    2.4230   -6.3133   14.5934 H   0  0  0  0  0  0  0  0  0  0  0  0
    1.3753   -6.3858   16.0213 H   0  0  0  0  0  0  0  0  0  0  0  0
    2.2294   -7.6990   18.1162 H   0  0  0  0  0  0  0  0  0  0  0  0
    3.8628   -8.3037   14.0818 H   0  0  0  0  0  0  0  0  0  0  0  0
    6.2233  -12.3112   15.9355 H   0  0  0  0  0  0  0  0  0  0  0  0
    4.7290  -13.0457   15.4389 H   0  0  0  0  0  0  0  0  0  0  0  0
    3.1015   -9.9691   18.8315 H   0  0  0  0  0  0  0  0  0  0  0  0
    9.5561    0.8743   12.4138 H   0  0  0  0  0  0  0  0  0  0  0  0
    9.0274    0.0166   13.9000 H   0  0  0  0  0  0  0  0  0  0  0  0
    9.0044    1.8382   13.8427 H   0  0  0  0  0  0  0  0  0  0  0  0
    4.4895   -2.6849   14.9939 H   0  0  0  0  0  0  0  0  0  0  0  0
  1 39  1  0  0  0  0
  1 13  1  0  0  0  0
  1  2  1  0  0  0  0
  2  3  1  0  0  0  0
  2 50  1  0  0  0  0
  2 51  1  0  0  0  0
  3 11  1  0  0  0  0
  3  4  1  0  0  0  0
  3 52  1  1  0  0  0
  4  6  1  0  0  0  0
  4  5  2  0  0  0  0
  6  7  1  0  0  0  0
  6 53  1  0  0  0  0
  7 10  1  0  0  0  0
  7  9  1  0  0  0  0
  7  8  1  0  0  0  0
  8 54  1  0  0  0  0
  8 55  1  0  0  0  0
  8 56  1  0  0  0  0
  9 57  1  0  0  0  0
  9 58  1  0  0  0  0
  9 59  1  0  0  0  0
 10 60  1  0  0  0  0
 10 61  1  0  0  0  0
 10 62  1  0  0  0  0
 11 14  1  0  0  0  0
 11 12  1  0  0  0  0
 11100  1  6  0  0  0
 12 13  1  0  0  0  0
 12 63  1  0  0  0  0
 12 64  1  0  0  0  0
 13 65  1  0  0  0  0
 13 66  1  0  0  0  0
 14 15  1  0  0  0  0
 14 67  1  0  0  0  0
 14 68  1  0  0  0  0
 15 17  1  0  0  0  0
 15 16  1  0  0  0  0
 15 69  1  6  0  0  0
 16 70  1  0  0  0  0
 17 18  1  0  0  0  0
 17 71  1  0  0  0  0
 17 72  1  0  0  0  0
 18 26  1  0  0  0  0
 18 19  1  0  0  0  0
 18 73  1  1  0  0  0
 19 49  1  0  0  0  0
 19 20  1  0  0  0  0
 19 74  1  6  0  0  0
 20 25  2  0  0  0  0
 20 21  1  0  0  0  0
 21 22  2  0  0  0  0
 21 75  1  0  0  0  0
 22 23  1  0  0  0  0
 22 76  1  0  0  0  0
 23 24  2  0  0  0  0
 23 77  1  0  0  0  0
 24 25  1  0  0  0  0
 24 78  1  0  0  0  0
 25 79  1  0  0  0  0
 26 28  1  0  0  0  0
 26 27  2  0  0  0  0
 28 29  1  0  0  0  0
 28 80  1  0  0  0  0
 29 38  1  0  0  0  0
 29 30  1  0  0  0  0
 29 81  1  6  0  0  0
 30 32  1  0  0  0  0
 30 31  1  0  0  0  0
 30 82  1  6  0  0  0
 31 83  1  0  0  0  0
 32 33  1  0  0  0  0
 32 84  1  0  0  0  0
 32 85  1  0  0  0  0
 33 38  2  0  0  0  0
 33 34  1  0  0  0  0
 34 35  2  0  0  0  0
 34 86  1  0  0  0  0
 35 36  1  0  0  0  0
 35 87  1  0  0  0  0
 36 37  2  0  0  0  0
 36 88  1  0  0  0  0
 37 38  1  0  0  0  0
 37 89  1  0  0  0  0
 39 40  1  0  0  0  0
 39 90  1  0  0  0  0
 39 91  1  0  0  0  0
 40 44  2  0  0  0  0
 40 41  1  0  0  0  0
 41 48  2  0  0  0  0
 41 92  1  0  0  0  0
 42 48  1  0  0  0  0
 42 45  1  0  0  0  0
 42 43  2  0  0  0  0
 43 47  1  0  0  0  0
 43 44  1  0  0  0  0
 44 93  1  0  0  0  0
 45 46  1  0  0  0  0
 46 47  1  0  0  0  0
 46 94  1  0  0  0  0
 46 95  1  0  0  0  0
 48 96  1  0  0  0  0
 49 97  1  0  0  0  0
 49 98  1  0  0  0  0
 49 99  1  0  0  0  0
M  CHG  1  11   1
M  END
$$$$
