XN3
 OpenBabel04041915163D

 97102  0  0  1  0  0  0  0  0999 V2000
    3.0246   -5.2369   16.4388 N   0  0  0  0  0  0  0  0  0  0  0  0
    4.3921   -5.1678   15.8873 C   0  0  0  0  0  0  0  0  0  0  0  0
    5.2204   -4.0157   16.4658 C   0  0  1  0  0  0  0  0  0  0  0  0
    6.6030   -4.0814   15.7349 C   0  0  0  0  0  0  0  0  0  0  0  0
    6.7001   -3.7163   14.6124 O   0  0  0  0  0  0  0  0  0  0  0  0
    7.6115   -4.6363   16.5261 N   0  0  0  0  0  0  0  0  0  0  0  0
    9.0315   -4.8550   16.1760 C   0  0  0  0  0  0  0  0  0  0  0  0
    9.7644   -5.4774   17.3675 C   0  0  0  0  0  0  0  0  0  0  0  0
    9.7412   -3.5709   15.9208 C   0  0  0  0  0  0  0  0  0  0  0  0
    9.2553   -5.7441   14.9704 C   0  0  0  0  0  0  0  0  0  0  0  0
    4.4226   -2.7108   16.1672 N   0  3  1  0  0  0  0  0  0  0  0  0
    2.9670   -2.7446   16.6249 C   0  0  0  0  0  0  0  0  0  0  0  0
    2.2955   -3.9974   16.0832 C   0  0  0  0  0  0  0  0  0  0  0  0
    5.0704   -1.5012   16.6742 C   0  0  0  0  0  0  0  0  0  0  0  0
    5.0357   -0.3618   15.6576 C   0  0  1  0  0  0  0  0  0  0  0  0
    4.9963    0.7412   16.5588 O   0  0  0  0  0  0  0  0  0  0  0  0
    6.2801   -0.1731   14.7872 C   0  0  0  0  0  0  0  0  0  0  0  0
    6.2514    0.9531   13.7171 C   0  0  1  0  0  0  0  0  0  0  0  0
    7.6365    1.0535   12.9831 C   0  0  0  0  0  0  0  0  0  0  0  0
    7.7104    2.1582   11.9002 C   0  0  0  0  0  0  0  0  0  0  0  0
    7.5746    3.5431   12.2277 C   0  0  0  0  0  0  0  0  0  0  0  0
    7.5920    4.5263   11.2003 C   0  0  0  0  0  0  0  0  0  0  0  0
    7.7504    4.1217    9.8487 C   0  0  0  0  0  0  0  0  0  0  0  0
    7.8881    2.7477    9.5156 C   0  0  0  0  0  0  0  0  0  0  0  0
    7.8690    1.7703   10.5376 C   0  0  0  0  0  0  0  0  0  0  0  0
    5.1412    0.6776   12.6327 C   0  0  0  0  0  0  0  0  0  0  0  0
    4.8049   -0.3679   12.2122 O   0  0  0  0  0  0  0  0  0  0  0  0
    4.6062    1.9044   12.2499 N   0  0  0  0  0  0  0  0  0  0  0  0
    3.6084    2.0516   11.2050 C   0  0  2  0  0  0  0  0  0  0  0  0
    3.6054    3.4914   10.6605 C   0  0  2  0  0  0  0  0  0  0  0  0
    3.7344    4.4451   11.7362 O   0  0  0  0  0  0  0  0  0  0  0  0
    2.2608    3.5947    9.9102 C   0  0  0  0  0  0  0  0  0  0  0  0
    1.3195    2.7778   10.7865 C   0  0  0  0  0  0  0  0  0  0  0  0
   -0.0961    2.8107   10.8782 C   0  0  0  0  0  0  0  0  0  0  0  0
   -0.6917    1.9111   11.7955 C   0  0  0  0  0  0  0  0  0  0  0  0
    0.1134    1.0105   12.5738 C   0  0  0  0  0  0  0  0  0  0  0  0
    1.5173    0.9932   12.4522 C   0  0  0  0  0  0  0  0  0  0  0  0
    2.1152    1.8889   11.5582 C   0  0  0  0  0  0  0  0  0  0  0  0
    2.2588   -6.3828   15.8603 C   0  0  0  0  0  0  0  0  0  0  0  0
    2.8141   -7.7948   16.1749 C   0  0  0  0  0  0  0  0  0  0  0  0
    2.6457   -8.3624   17.4791 C   0  0  0  0  0  0  0  0  0  0  0  0
    3.8399  -10.3945   16.7688 C   0  0  0  0  0  0  0  0  0  0  0  0
    4.0151   -9.8749   15.4912 C   0  0  0  0  0  0  0  0  0  0  0  0
    3.5067   -8.5683   15.1618 C   0  0  0  0  0  0  0  0  0  0  0  0
    4.4044  -11.6588   16.8870 O   0  0  0  0  0  0  0  0  0  0  0  0
    4.9778  -11.9589   15.5739 C   0  0  0  0  0  0  0  0  0  0  0  0
    4.7175  -10.7978   14.6938 O   0  0  0  0  0  0  0  0  0  0  0  0
    3.1598   -9.6696   17.7901 C   0  0  0  0  0  0  0  0  0  0  0  0
    4.3613   -5.0232   14.7966 H   0  0  0  0  0  0  0  0  0  0  0  0
    4.9317   -6.0929   16.1003 H   0  0  0  0  0  0  0  0  0  0  0  0
    5.3901   -4.0887   17.5498 H   0  0  0  0  0  0  0  0  0  0  0  0
    7.3858   -4.9016   17.4608 H   0  0  0  0  0  0  0  0  0  0  0  0
   10.8253   -5.6338   17.1255 H   0  0  0  0  0  0  0  0  0  0  0  0
    9.3140   -6.4349   17.6194 H   0  0  0  0  0  0  0  0  0  0  0  0
    9.7085   -4.8127   18.2369 H   0  0  0  0  0  0  0  0  0  0  0  0
   10.7893   -3.7978   15.6689 H   0  0  0  0  0  0  0  0  0  0  0  0
    9.7057   -2.9666   16.8315 H   0  0  0  0  0  0  0  0  0  0  0  0
    9.2655   -3.0467   15.0893 H   0  0  0  0  0  0  0  0  0  0  0  0
   10.3348   -5.8403   14.7811 H   0  0  0  0  0  0  0  0  0  0  0  0
    8.7864   -5.3149   14.0820 H   0  0  0  0  0  0  0  0  0  0  0  0
    8.8429   -6.7297   15.1723 H   0  0  0  0  0  0  0  0  0  0  0  0
    2.4740   -1.8419   16.2353 H   0  0  0  0  0  0  0  0  0  0  0  0
    2.9488   -2.7169   17.7197 H   0  0  0  0  0  0  0  0  0  0  0  0
    1.2784   -4.0324   16.4929 H   0  0  0  0  0  0  0  0  0  0  0  0
    2.2386   -3.9117   14.9911 H   0  0  0  0  0  0  0  0  0  0  0  0
    6.0863   -1.7035   16.9920 H   0  0  0  0  0  0  0  0  0  0  0  0
    4.4935   -1.1892   17.5679 H   0  0  0  0  0  0  0  0  0  0  0  0
    4.1312   -0.4325   15.0282 H   0  0  0  0  0  0  0  0  0  0  0  0
    4.2625    0.6033   17.1738 H   0  0  0  0  0  0  0  0  0  0  0  0
    6.4924   -1.1010   14.2671 H   0  0  0  0  0  0  0  0  0  0  0  0
    7.0975    0.0746   15.4755 H   0  0  0  0  0  0  0  0  0  0  0  0
    6.0587    1.9095   14.2317 H   0  0  0  0  0  0  0  0  0  0  0  0
    7.8658    0.0726   12.5173 H   0  0  0  0  0  0  0  0  0  0  0  0
    8.4493    1.2249   13.7172 H   0  0  0  0  0  0  0  0  0  0  0  0
    7.4488    3.8634   13.2748 H   0  0  0  0  0  0  0  0  0  0  0  0
    7.4864    5.5973   11.4567 H   0  0  0  0  0  0  0  0  0  0  0  0
    7.7710    4.8729    9.0457 H   0  0  0  0  0  0  0  0  0  0  0  0
    8.0133    2.4277    8.4673 H   0  0  0  0  0  0  0  0  0  0  0  0
    7.9737    0.7050   10.2709 H   0  0  0  0  0  0  0  0  0  0  0  0
    4.9825    2.7504   12.6565 H   0  0  0  0  0  0  0  0  0  0  0  0
    3.8792    1.3718   10.3904 H   0  0  0  0  0  0  0  0  0  0  0  0
    4.4445    3.6600    9.9798 H   0  0  0  0  0  0  0  0  0  0  0  0
    3.6779    5.3380   11.3535 H   0  0  0  0  0  0  0  0  0  0  0  0
    2.3982    3.1120    8.9332 H   0  0  0  0  0  0  0  0  0  0  0  0
    1.9890    4.6451    9.7927 H   0  0  0  0  0  0  0  0  0  0  0  0
   -0.7376    3.4917   10.2951 H   0  0  0  0  0  0  0  0  0  0  0  0
   -1.7808    1.8855   11.9274 H   0  0  0  0  0  0  0  0  0  0  0  0
   -0.3640    0.3173   13.2783 H   0  0  0  0  0  0  0  0  0  0  0  0
    2.1137    0.2936   13.0548 H   0  0  0  0  0  0  0  0  0  0  0  0
    2.2093   -6.2434   14.7682 H   0  0  0  0  0  0  0  0  0  0  0  0
    1.2158   -6.3213   16.2361 H   0  0  0  0  0  0  0  0  0  0  0  0
    2.1093   -7.7844   18.2502 H   0  0  0  0  0  0  0  0  0  0  0  0
    3.6152   -8.1168   14.1593 H   0  0  0  0  0  0  0  0  0  0  0  0
    6.0838  -12.2084   15.6524 H   0  0  0  0  0  0  0  0  0  0  0  0
    4.5680  -12.9312   15.1532 H   0  0  0  0  0  0  0  0  0  0  0  0
    3.0236  -10.0880   18.8071 H   0  0  0  0  0  0  0  0  0  0  0  0
    4.3993   -2.6561   15.1411 H   0  0  0  0  0  0  0  0  0  0  0  0
  1 39  1  0  0  0  0
  1 13  1  0  0  0  0
  1  2  1  0  0  0  0
  2  3  1  0  0  0  0
  2 49  1  0  0  0  0
  2 50  1  0  0  0  0
  3 11  1  0  0  0  0
  3  4  1  0  0  0  0
  3 51  1  1  0  0  0
  4  6  1  0  0  0  0
  4  5  2  0  0  0  0
  6  7  1  0  0  0  0
  6 52  1  0  0  0  0
  7 10  1  0  0  0  0
  7  9  1  0  0  0  0
  7  8  1  0  0  0  0
  8 53  1  0  0  0  0
  8 54  1  0  0  0  0
  8 55  1  0  0  0  0
  9 56  1  0  0  0  0
  9 57  1  0  0  0  0
  9 58  1  0  0  0  0
 10 59  1  0  0  0  0
 10 60  1  0  0  0  0
 10 61  1  0  0  0  0
 11 14  1  0  0  0  0
 11 12  1  0  0  0  0
 11 97  1  6  0  0  0
 12 13  1  0  0  0  0
 12 62  1  0  0  0  0
 12 63  1  0  0  0  0
 13 64  1  0  0  0  0
 13 65  1  0  0  0  0
 14 15  1  0  0  0  0
 14 66  1  0  0  0  0
 14 67  1  0  0  0  0
 15 17  1  0  0  0  0
 15 16  1  0  0  0  0
 15 68  1  6  0  0  0
 16 69  1  0  0  0  0
 17 18  1  0  0  0  0
 17 70  1  0  0  0  0
 17 71  1  0  0  0  0
 18 26  1  0  0  0  0
 18 19  1  0  0  0  0
 18 72  1  1  0  0  0
 19 20  1  0  0  0  0
 19 73  1  0  0  0  0
 19 74  1  0  0  0  0
 20 25  2  0  0  0  0
 20 21  1  0  0  0  0
 21 22  2  0  0  0  0
 21 75  1  0  0  0  0
 22 23  1  0  0  0  0
 22 76  1  0  0  0  0
 23 24  2  0  0  0  0
 23 77  1  0  0  0  0
 24 25  1  0  0  0  0
 24 78  1  0  0  0  0
 25 79  1  0  0  0  0
 26 28  1  0  0  0  0
 26 27  2  0  0  0  0
 28 29  1  0  0  0  0
 28 80  1  0  0  0  0
 29 38  1  0  0  0  0
 29 30  1  0  0  0  0
 29 81  1  6  0  0  0
 30 32  1  0  0  0  0
 30 31  1  0  0  0  0
 30 82  1  6  0  0  0
 31 83  1  0  0  0  0
 32 33  1  0  0  0  0
 32 84  1  0  0  0  0
 32 85  1  0  0  0  0
 33 38  2  0  0  0  0
 33 34  1  0  0  0  0
 34 35  2  0  0  0  0
 34 86  1  0  0  0  0
 35 36  1  0  0  0  0
 35 87  1  0  0  0  0
 36 37  2  0  0  0  0
 36 88  1  0  0  0  0
 37 38  1  0  0  0  0
 37 89  1  0  0  0  0
 39 40  1  0  0  0  0
 39 90  1  0  0  0  0
 39 91  1  0  0  0  0
 40 44  2  0  0  0  0
 40 41  1  0  0  0  0
 41 48  2  0  0  0  0
 41 92  1  0  0  0  0
 42 48  1  0  0  0  0
 42 45  1  0  0  0  0
 42 43  2  0  0  0  0
 43 47  1  0  0  0  0
 43 44  1  0  0  0  0
 44 93  1  0  0  0  0
 45 46  1  0  0  0  0
 46 47  1  0  0  0  0
 46 94  1  0  0  0  0
 46 95  1  0  0  0  0
 48 96  1  0  0  0  0
M  CHG  1  11   1
M  END
$$$$
