XV6
 OpenBabel04041916353D

 92 98  0  0  1  0  0  0  0  0999 V2000
   -8.9360   15.3007   27.8902 C   0  0  0  0  0  0  0  0  0  0  0  0
   -9.5826   14.8490   30.1567 C   0  0  0  0  0  0  0  0  0  0  0  0
  -10.9178   16.5237   28.8652 C   0  0  1  0  0  0  0  0  0  0  0  0
  -10.6659   18.0117   28.5950 C   0  0  1  0  0  0  0  0  0  0  0  0
  -10.1016   18.3008   27.2145 C   0  0  2  0  0  0  0  0  0  0  0  0
   -8.7334   17.6570   26.9712 C   0  0  1  0  0  0  0  0  0  0  0  0
   -8.0222   15.6342   25.6870 C   0  0  0  0  0  0  0  0  0  0  0  0
   -9.4890   15.5907   31.4673 C   0  0  0  0  0  0  0  0  0  0  0  0
  -10.1873   15.0944   32.5748 C   0  0  0  0  0  0  0  0  0  0  0  0
  -10.0726   15.7063   33.8286 C   0  0  0  0  0  0  0  0  0  0  0  0
   -9.2726   16.8515   33.9587 C   0  0  0  0  0  0  0  0  0  0  0  0
   -8.5704   17.3513   32.8613 C   0  0  0  0  0  0  0  0  0  0  0  0
   -8.6645   16.7101   31.6307 C   0  0  0  0  0  0  0  0  0  0  0  0
  -10.7840   15.1697   35.0306 C   0  0  0  0  0  0  0  0  0  0  0  0
  -11.6846   13.0846   35.9736 C   0  0  0  0  0  0  0  0  0  0  0  0
  -12.3241   11.2667   37.0400 C   0  0  0  0  0  0  0  0  0  0  0  0
  -12.7826   12.2091   37.9341 C   0  0  0  0  0  0  0  0  0  0  0  0
  -11.9883   15.9026   27.9255 C   0  0  0  0  0  0  0  0  0  0  0  0
  -12.5773   14.6375   28.5023 C   0  0  0  0  0  0  0  0  0  0  0  0
  -12.1896   13.3830   28.0157 C   0  0  0  0  0  0  0  0  0  0  0  0
  -12.6306   12.2215   28.6484 C   0  0  0  0  0  0  0  0  0  0  0  0
  -13.4668   12.3049   29.7616 C   0  0  0  0  0  0  0  0  0  0  0  0
  -13.8804   13.5495   30.2335 C   0  0  0  0  0  0  0  0  0  0  0  0
  -13.4444   14.7096   29.6023 C   0  0  0  0  0  0  0  0  0  0  0  0
   -7.6504   18.1790   27.9492 C   0  0  0  0  0  0  0  0  0  0  0  0
   -6.2777   18.1072   27.3281 C   0  0  0  0  0  0  0  0  0  0  0  0
   -5.9537   18.9722   26.2775 C   0  0  0  0  0  0  0  0  0  0  0  0
   -4.7495   18.8237   25.5945 C   0  0  0  0  0  0  0  0  0  0  0  0
   -3.8589   17.8218   25.9728 C   0  0  0  0  0  0  0  0  0  0  0  0
   -4.1662   16.9722   27.0349 C   0  0  0  0  0  0  0  0  0  0  0  0
   -5.3742   17.1164   27.7131 C   0  0  0  0  0  0  0  0  0  0  0  0
   -8.6874   15.9472   24.3667 C   0  0  0  0  0  0  0  0  0  0  0  0
   -7.8970   16.2570   23.2521 C   0  0  0  0  0  0  0  0  0  0  0  0
   -8.4960   16.5378   22.0182 C   0  0  0  0  0  0  0  0  0  0  0  0
   -9.9014   16.5068   21.9196 C   0  0  0  0  0  0  0  0  0  0  0  0
  -10.6886   16.1851   23.0182 C   0  0  0  0  0  0  0  0  0  0  0  0
  -10.0793   15.8893   24.2326 C   0  0  0  0  0  0  0  0  0  0  0  0
   -7.7159   16.9158   20.8079 C   0  0  0  0  0  0  0  0  0  0  0  0
   -5.5469   16.7103   19.6995 C   0  0  0  0  0  0  0  0  0  0  0  0
   -3.8179   16.3821   18.3720 C   0  0  0  0  0  0  0  0  0  0  0  0
   -4.4306   17.3962   17.6683 C   0  0  0  0  0  0  0  0  0  0  0  0
   -9.6723   15.7228   28.9860 N   0  0  0  0  0  0  0  0  0  0  0  0
   -8.7543   16.1771   26.8438 N   0  0  0  0  0  0  0  0  0  0  0  0
  -11.0992   13.8290   34.9814 N   0  0  0  0  0  0  0  0  0  0  0  0
  -11.7257   11.7705   35.9005 N   0  0  0  0  0  0  0  0  0  0  0  0
   -6.3965   16.5141   20.7647 N   0  0  0  0  0  0  0  0  0  0  0  0
   -4.4328   16.0245   19.5604 N   0  0  0  0  0  0  0  0  0  0  0  0
   -8.4322   14.1755   27.8722 O   0  0  0  0  0  0  0  0  0  0  0  0
  -11.9056   18.7319   28.7346 O   0  0  0  0  0  0  0  0  0  0  0  0
   -9.9533   19.7319   27.0788 O   0  0  0  0  0  0  0  0  0  0  0  0
  -10.9826   15.9398   35.9658 O   0  0  0  0  0  0  0  0  0  0  0  0
   -8.3219   17.5148   19.9222 O   0  0  0  0  0  0  0  0  0  0  0  0
  -12.4264   13.7762   37.3419 S   0  0  0  0  0  0  0  0  0  0  0  0
   -5.8335   17.8981   18.5052 S   0  0  0  0  0  0  0  0  0  0  0  0
   -8.7044   14.1941   30.1076 H   0  0  0  0  0  0  0  0  0  0  0  0
  -10.4549   14.1890   30.1541 H   0  0  0  0  0  0  0  0  0  0  0  0
  -11.3724   16.5240   29.8648 H   0  0  0  0  0  0  0  0  0  0  0  0
   -9.9987   18.4106   29.3682 H   0  0  0  0  0  0  0  0  0  0  0  0
  -10.8057   17.9939   26.4324 H   0  0  0  0  0  0  0  0  0  0  0  0
   -8.4602   18.0382   25.9777 H   0  0  0  0  0  0  0  0  0  0  0  0
   -7.9063   14.5473   25.7386 H   0  0  0  0  0  0  0  0  0  0  0  0
   -7.0111   16.0505   25.7007 H   0  0  0  0  0  0  0  0  0  0  0  0
  -10.8293   14.2298   32.4295 H   0  0  0  0  0  0  0  0  0  0  0  0
   -9.1813   17.3550   34.9189 H   0  0  0  0  0  0  0  0  0  0  0  0
   -7.9429   18.2336   32.9644 H   0  0  0  0  0  0  0  0  0  0  0  0
   -8.0894   17.0956   30.7959 H   0  0  0  0  0  0  0  0  0  0  0  0
  -12.4046   10.1940   37.1713 H   0  0  0  0  0  0  0  0  0  0  0  0
  -13.2872   12.0609   38.8772 H   0  0  0  0  0  0  0  0  0  0  0  0
  -11.5750   15.6926   26.9391 H   0  0  0  0  0  0  0  0  0  0  0  0
  -12.8148   16.6044   27.7559 H   0  0  0  0  0  0  0  0  0  0  0  0
  -11.5101   13.3024   27.1694 H   0  0  0  0  0  0  0  0  0  0  0  0
  -12.3049   11.2509   28.2835 H   0  0  0  0  0  0  0  0  0  0  0  0
  -13.7956   11.3983   30.2621 H   0  0  0  0  0  0  0  0  0  0  0  0
  -14.5323   13.6156   31.1012 H   0  0  0  0  0  0  0  0  0  0  0  0
  -13.7568   15.6790   29.9904 H   0  0  0  0  0  0  0  0  0  0  0  0
   -7.6549   17.6139   28.8796 H   0  0  0  0  0  0  0  0  0  0  0  0
   -7.8274   19.2238   28.2311 H   0  0  0  0  0  0  0  0  0  0  0  0
   -6.6592   19.7409   25.9602 H   0  0  0  0  0  0  0  0  0  0  0  0
   -4.5182   19.4823   24.7619 H   0  0  0  0  0  0  0  0  0  0  0  0
   -2.9197   17.7007   25.4375 H   0  0  0  0  0  0  0  0  0  0  0  0
   -3.4770   16.1849   27.3239 H   0  0  0  0  0  0  0  0  0  0  0  0
   -5.6246   16.4178   28.5110 H   0  0  0  0  0  0  0  0  0  0  0  0
   -6.8189   16.3028   23.3734 H   0  0  0  0  0  0  0  0  0  0  0  0
  -10.3869   16.7382   20.9722 H   0  0  0  0  0  0  0  0  0  0  0  0
  -11.7729   16.1649   22.9355 H   0  0  0  0  0  0  0  0  0  0  0  0
  -10.7005   15.6261   25.0779 H   0  0  0  0  0  0  0  0  0  0  0  0
   -2.9160   15.8714   18.0588 H   0  0  0  0  0  0  0  0  0  0  0  0
   -4.1384   17.8504   16.7330 H   0  0  0  0  0  0  0  0  0  0  0  0
  -10.7606   13.2482   34.2289 H   0  0  0  0  0  0  0  0  0  0  0  0
   -6.0347   15.8580   21.4409 H   0  0  0  0  0  0  0  0  0  0  0  0
  -11.6772   19.6770   28.7806 H   0  0  0  0  0  0  0  0  0  0  0  0
  -10.8442   20.1115   26.9898 H   0  0  0  0  0  0  0  0  0  0  0  0
  1 48  2  0  0  0  0
  1 43  1  0  0  0  0
  1 42  1  0  0  0  0
  2 42  1  0  0  0  0
  2  8  1  0  0  0  0
  2 55  1  0  0  0  0
  2 56  1  0  0  0  0
  3 42  1  0  0  0  0
  3 18  1  0  0  0  0
  3  4  1  0  0  0  0
  3 57  1  1  0  0  0
  4 49  1  0  0  0  0
  4  5  1  0  0  0  0
  4 58  1  1  0  0  0
  5 50  1  0  0  0  0
  5  6  1  0  0  0  0
  5 59  1  6  0  0  0
  6 43  1  0  0  0  0
  6 25  1  0  0  0  0
  6 60  1  6  0  0  0
  7 43  1  0  0  0  0
  7 32  1  0  0  0  0
  7 61  1  0  0  0  0
  7 62  1  0  0  0  0
  8 13  2  0  0  0  0
  8  9  1  0  0  0  0
  9 10  2  0  0  0  0
  9 63  1  0  0  0  0
 10 14  1  0  0  0  0
 10 11  1  0  0  0  0
 11 12  2  0  0  0  0
 11 64  1  0  0  0  0
 12 13  1  0  0  0  0
 12 65  1  0  0  0  0
 13 66  1  0  0  0  0
 14 51  2  0  0  0  0
 14 44  1  0  0  0  0
 15 44  1  0  0  0  0
 15 45  2  0  0  0  0
 15 53  1  0  0  0  0
 16 17  2  0  0  0  0
 16 45  1  0  0  0  0
 16 67  1  0  0  0  0
 17 53  1  0  0  0  0
 17 68  1  0  0  0  0
 18 19  1  0  0  0  0
 18 69  1  0  0  0  0
 18 70  1  0  0  0  0
 19 24  2  0  0  0  0
 19 20  1  0  0  0  0
 20 21  2  0  0  0  0
 20 71  1  0  0  0  0
 21 22  1  0  0  0  0
 21 72  1  0  0  0  0
 22 23  2  0  0  0  0
 22 73  1  0  0  0  0
 23 24  1  0  0  0  0
 23 74  1  0  0  0  0
 24 75  1  0  0  0  0
 25 26  1  0  0  0  0
 25 76  1  0  0  0  0
 25 77  1  0  0  0  0
 26 31  2  0  0  0  0
 26 27  1  0  0  0  0
 27 28  2  0  0  0  0
 27 78  1  0  0  0  0
 28 29  1  0  0  0  0
 28 79  1  0  0  0  0
 29 30  2  0  0  0  0
 29 80  1  0  0  0  0
 30 31  1  0  0  0  0
 30 81  1  0  0  0  0
 31 82  1  0  0  0  0
 32 37  2  0  0  0  0
 32 33  1  0  0  0  0
 33 34  2  0  0  0  0
 33 83  1  0  0  0  0
 34 38  1  0  0  0  0
 34 35  1  0  0  0  0
 35 36  2  0  0  0  0
 35 84  1  0  0  0  0
 36 37  1  0  0  0  0
 36 85  1  0  0  0  0
 37 86  1  0  0  0  0
 38 46  1  0  0  0  0
 38 52  2  0  0  0  0
 39 46  1  0  0  0  0
 39 47  2  0  0  0  0
 39 54  1  0  0  0  0
 40 41  2  0  0  0  0
 40 47  1  0  0  0  0
 40 87  1  0  0  0  0
 41 54  1  0  0  0  0
 41 88  1  0  0  0  0
 44 89  1  0  0  0  0
 46 90  1  0  0  0  0
 49 91  1  0  0  0  0
 50 92  1  0  0  0  0
M  END
$$$$
