XV6
 OpenBabel04041914053D

 92 98  0  0  1  0  0  0  0  0999 V2000
   -8.2853   14.2401   27.6993 O   0  0  0  0  0  0  0  0  0  0  0  0
  -11.8722   18.6795   28.8290 O   0  0  0  0  0  0  0  0  0  0  0  0
  -10.2284   19.6338   26.8588 O   0  0  0  0  0  0  0  0  0  0  0  0
   -9.6575   15.6395   28.8294 N   0  0  0  0  0  0  0  0  0  0  0  0
   -8.8538   16.1701   26.6502 N   0  0  0  0  0  0  0  0  0  0  0  0
   -8.9038   15.3042   27.7250 C   0  0  0  0  0  0  0  0  0  0  0  0
   -9.4892   14.7295   29.9729 C   0  0  0  0  0  0  0  0  0  0  0  0
  -10.8977   16.4625   28.8367 C   0  0  1  0  0  0  0  0  0  0  0  0
  -10.6713   17.9485   28.5287 C   0  0  1  0  0  0  0  0  0  0  0  0
  -10.2758   18.2099   27.0822 C   0  0  2  0  0  0  0  0  0  0  0  0
   -8.8879   17.6470   26.7672 C   0  0  1  0  0  0  0  0  0  0  0  0
   -8.1300   15.6382   25.4901 C   0  0  0  0  0  0  0  0  0  0  0  0
  -12.0774   15.8536   28.0400 C   0  0  0  0  0  0  0  0  0  0  0  0
  -12.5988   14.5861   28.6757 C   0  0  0  0  0  0  0  0  0  0  0  0
  -12.1948   13.3378   28.1865 C   0  0  0  0  0  0  0  0  0  0  0  0
  -12.5986   12.1685   28.8284 C   0  0  0  0  0  0  0  0  0  0  0  0
  -13.4157   12.2367   29.9562 C   0  0  0  0  0  0  0  0  0  0  0  0
  -13.8290   13.4743   30.4469 C   0  0  0  0  0  0  0  0  0  0  0  0
  -13.4213   14.6463   29.8112 C   0  0  0  0  0  0  0  0  0  0  0  0
   -7.8179   18.2328   27.7237 C   0  0  0  0  0  0  0  0  0  0  0  0
   -6.4164   18.0607   27.2155 C   0  0  0  0  0  0  0  0  0  0  0  0
   -6.0177   18.7221   26.0460 C   0  0  0  0  0  0  0  0  0  0  0  0
   -4.7436   18.5016   25.5288 C   0  0  0  0  0  0  0  0  0  0  0  0
   -3.8630   17.6492   26.1901 C   0  0  0  0  0  0  0  0  0  0  0  0
   -4.2475   17.0174   27.3720 C   0  0  0  0  0  0  0  0  0  0  0  0
   -5.5225   17.2232   27.8886 C   0  0  0  0  0  0  0  0  0  0  0  0
   -9.4212   15.4599   31.2845 C   0  0  0  0  0  0  0  0  0  0  0  0
  -10.1450   14.9749   32.3795 C   0  0  0  0  0  0  0  0  0  0  0  0
  -10.1078   15.6536   33.5957 C   0  0  0  0  0  0  0  0  0  0  0  0
   -9.3725   16.8504   33.6951 C   0  0  0  0  0  0  0  0  0  0  0  0
   -8.6418   17.3309   32.6102 C   0  0  0  0  0  0  0  0  0  0  0  0
   -8.6464   16.6198   31.4198 C   0  0  0  0  0  0  0  0  0  0  0  0
  -10.8483   15.1641   34.7949 C   0  0  0  0  0  0  0  0  0  0  0  0
  -11.1836   16.0134   35.6115 O   0  0  0  0  0  0  0  0  0  0  0  0
  -11.0305   13.7931   34.8961 N   0  0  0  0  0  0  0  0  0  0  0  0
  -11.4543   11.8277   36.1507 N   0  0  0  0  0  0  0  0  0  0  0  0
  -11.5358   13.1360   36.0023 C   0  0  0  0  0  0  0  0  0  0  0  0
  -12.0087   11.4636   37.3739 C   0  0  0  0  0  0  0  0  0  0  0  0
  -12.3529   13.9592   37.2593 S   0  0  0  0  0  0  0  0  0  0  0  0
  -12.5579   12.4907   38.1084 C   0  0  0  0  0  0  0  0  0  0  0  0
   -8.7626   15.9774   24.1648 C   0  0  0  0  0  0  0  0  0  0  0  0
   -7.9235   16.2520   23.0714 C   0  0  0  0  0  0  0  0  0  0  0  0
   -8.4655   16.5754   21.8271 C   0  0  0  0  0  0  0  0  0  0  0  0
   -9.8631   16.6290   21.6885 C   0  0  0  0  0  0  0  0  0  0  0  0
  -10.7023   16.3171   22.7628 C   0  0  0  0  0  0  0  0  0  0  0  0
  -10.1522   15.9740   23.9924 C   0  0  0  0  0  0  0  0  0  0  0  0
   -7.6015   16.9457   20.6642 C   0  0  0  0  0  0  0  0  0  0  0  0
   -8.0848   17.7441   19.8553 O   0  0  0  0  0  0  0  0  0  0  0  0
   -6.3503   16.3577   20.6042 N   0  0  0  0  0  0  0  0  0  0  0  0
   -4.1949   16.0394   19.6846 N   0  0  0  0  0  0  0  0  0  0  0  0
   -5.4000   16.5669   19.6222 C   0  0  0  0  0  0  0  0  0  0  0  0
   -3.4627   16.4125   18.5660 C   0  0  0  0  0  0  0  0  0  0  0  0
   -5.7126   17.5023   18.2264 S   0  0  0  0  0  0  0  0  0  0  0  0
   -4.1327   17.1952   17.6528 C   0  0  0  0  0  0  0  0  0  0  0  0
  -11.6265   19.6213   28.8515 H   0  0  0  0  0  0  0  0  0  0  0  0
  -11.1442   19.9601   26.8625 H   0  0  0  0  0  0  0  0  0  0  0  0
   -8.5782   14.1292   29.8892 H   0  0  0  0  0  0  0  0  0  0  0  0
  -10.3186   14.0182   29.9761 H   0  0  0  0  0  0  0  0  0  0  0  0
  -11.2429   16.4831   29.8783 H   0  0  0  0  0  0  0  0  0  0  0  0
   -9.9119   18.3471   29.2098 H   0  0  0  0  0  0  0  0  0  0  0  0
  -11.0234   17.8111   26.3871 H   0  0  0  0  0  0  0  0  0  0  0  0
   -8.6584   18.0453   25.7697 H   0  0  0  0  0  0  0  0  0  0  0  0
   -8.0577   14.5464   25.5214 H   0  0  0  0  0  0  0  0  0  0  0  0
   -7.1041   16.0174   25.5306 H   0  0  0  0  0  0  0  0  0  0  0  0
  -11.7990   15.6577   27.0004 H   0  0  0  0  0  0  0  0  0  0  0  0
  -12.9139   16.5643   27.9996 H   0  0  0  0  0  0  0  0  0  0  0  0
  -11.5287   13.2737   27.3283 H   0  0  0  0  0  0  0  0  0  0  0  0
  -12.2671   11.2045   28.4518 H   0  0  0  0  0  0  0  0  0  0  0  0
  -13.7329   11.3227   30.4509 H   0  0  0  0  0  0  0  0  0  0  0  0
  -14.4686   13.5261   31.3246 H   0  0  0  0  0  0  0  0  0  0  0  0
  -13.7361   15.6078   30.2139 H   0  0  0  0  0  0  0  0  0  0  0  0
   -7.8881   17.7690   28.7061 H   0  0  0  0  0  0  0  0  0  0  0  0
   -7.9831   19.3072   27.8960 H   0  0  0  0  0  0  0  0  0  0  0  0
   -6.7005   19.3795   25.5197 H   0  0  0  0  0  0  0  0  0  0  0  0
   -4.4453   18.9865   24.6030 H   0  0  0  0  0  0  0  0  0  0  0  0
   -2.8722   17.4701   25.7861 H   0  0  0  0  0  0  0  0  0  0  0  0
   -3.5574   16.3544   27.8896 H   0  0  0  0  0  0  0  0  0  0  0  0
   -5.8193   16.7152   28.8040 H   0  0  0  0  0  0  0  0  0  0  0  0
  -10.7608   14.0892   32.2523 H   0  0  0  0  0  0  0  0  0  0  0  0
   -9.3563   17.4093   34.6291 H   0  0  0  0  0  0  0  0  0  0  0  0
   -8.0681   18.2514   32.6885 H   0  0  0  0  0  0  0  0  0  0  0  0
   -8.0662   16.9870   30.5809 H   0  0  0  0  0  0  0  0  0  0  0  0
  -10.6364   13.1691   34.2072 H   0  0  0  0  0  0  0  0  0  0  0  0
  -11.9925   10.4268   37.6889 H   0  0  0  0  0  0  0  0  0  0  0  0
  -13.0516   12.4518   39.0700 H   0  0  0  0  0  0  0  0  0  0  0  0
   -6.8482   16.2444   23.2270 H   0  0  0  0  0  0  0  0  0  0  0  0
  -10.3074   16.9149   20.7362 H   0  0  0  0  0  0  0  0  0  0  0  0
  -11.7833   16.3468   22.6427 H   0  0  0  0  0  0  0  0  0  0  0  0
  -10.8099   15.7294   24.8255 H   0  0  0  0  0  0  0  0  0  0  0  0
   -6.0522   15.7010   21.3118 H   0  0  0  0  0  0  0  0  0  0  0  0
   -2.4353   16.0827   18.4547 H   0  0  0  0  0  0  0  0  0  0  0  0
   -3.7777   17.5936   16.7132 H   0  0  0  0  0  0  0  0  0  0  0  0
  1  6  2  0  0  0  0
  2  9  1  0  0  0  0
  2 55  1  0  0  0  0
  3 10  1  0  0  0  0
  3 56  1  0  0  0  0
  4  6  1  0  0  0  0
  4  8  1  0  0  0  0
  4  7  1  0  0  0  0
  5  6  1  0  0  0  0
  5 11  1  0  0  0  0
  5 12  1  0  0  0  0
  7 27  1  0  0  0  0
  7 57  1  0  0  0  0
  7 58  1  0  0  0  0
  8  9  1  0  0  0  0
  8 13  1  0  0  0  0
  8 59  1  1  0  0  0
  9 10  1  0  0  0  0
  9 60  1  1  0  0  0
 10 11  1  0  0  0  0
 10 61  1  6  0  0  0
 11 20  1  0  0  0  0
 11 62  1  6  0  0  0
 12 41  1  0  0  0  0
 12 63  1  0  0  0  0
 12 64  1  0  0  0  0
 13 14  1  0  0  0  0
 13 65  1  0  0  0  0
 13 66  1  0  0  0  0
 14 19  2  0  0  0  0
 14 15  1  0  0  0  0
 15 16  2  0  0  0  0
 15 67  1  0  0  0  0
 16 17  1  0  0  0  0
 16 68  1  0  0  0  0
 17 18  2  0  0  0  0
 17 69  1  0  0  0  0
 18 19  1  0  0  0  0
 18 70  1  0  0  0  0
 19 71  1  0  0  0  0
 20 21  1  0  0  0  0
 20 72  1  0  0  0  0
 20 73  1  0  0  0  0
 21 26  2  0  0  0  0
 21 22  1  0  0  0  0
 22 23  2  0  0  0  0
 22 74  1  0  0  0  0
 23 24  1  0  0  0  0
 23 75  1  0  0  0  0
 24 25  2  0  0  0  0
 24 76  1  0  0  0  0
 25 26  1  0  0  0  0
 25 77  1  0  0  0  0
 26 78  1  0  0  0  0
 27 32  2  0  0  0  0
 27 28  1  0  0  0  0
 28 29  2  0  0  0  0
 28 79  1  0  0  0  0
 29 33  1  0  0  0  0
 29 30  1  0  0  0  0
 30 31  2  0  0  0  0
 30 80  1  0  0  0  0
 31 32  1  0  0  0  0
 31 81  1  0  0  0  0
 32 82  1  0  0  0  0
 33 35  1  0  0  0  0
 33 34  2  0  0  0  0
 35 37  1  0  0  0  0
 35 83  1  0  0  0  0
 36 37  2  0  0  0  0
 36 38  1  0  0  0  0
 37 39  1  0  0  0  0
 38 40  2  0  0  0  0
 38 84  1  0  0  0  0
 39 40  1  0  0  0  0
 40 85  1  0  0  0  0
 41 46  2  0  0  0  0
 41 42  1  0  0  0  0
 42 43  2  0  0  0  0
 42 86  1  0  0  0  0
 43 47  1  0  0  0  0
 43 44  1  0  0  0  0
 44 45  2  0  0  0  0
 44 87  1  0  0  0  0
 45 46  1  0  0  0  0
 45 88  1  0  0  0  0
 46 89  1  0  0  0  0
 47 49  1  0  0  0  0
 47 48  2  0  0  0  0
 49 51  1  0  0  0  0
 49 90  1  0  0  0  0
 50 51  2  0  0  0  0
 50 52  1  0  0  0  0
 51 53  1  0  0  0  0
 52 54  2  0  0  0  0
 52 91  1  0  0  0  0
 53 54  1  0  0  0  0
 54 92  1  0  0  0  0
M  END
$$$$
