ZEC
 OpenBabel04041917563D

 20 21  0  0  0  0  0  0  0  0999 V2000
   18.0483    8.7156   12.7418 O   0  0  0  0  0  0  0  0  0  0  0  0
   17.9387    7.5655   13.4677 C   0  0  0  0  0  0  0  0  0  0  0  0
   16.6498    7.1357   13.7735 C   0  0  0  0  0  0  0  0  0  0  0  0
   16.5187    5.9618   14.5257 C   0  0  0  0  0  0  0  0  0  0  0  0
   15.0801    5.2088   15.0863 S   0  0  0  0  0  0  0  0  0  0  0  0
   16.0196    4.0046   15.8372 C   0  0  0  0  0  0  0  0  0  0  0  0
   15.1817    2.7057   16.7232 S   0  0  0  0  0  0  0  0  0  0  0  0
   15.6237    1.2557   16.0019 N   0  0  0  0  0  0  0  0  0  0  0  0
   13.7555    2.8432   16.4757 O   0  0  0  0  0  0  0  0  0  0  0  0
   15.7140    2.7194   18.0611 O   0  0  0  0  0  0  0  0  0  0  0  0
   17.3311    4.0718   15.6618 N   0  0  0  0  0  0  0  0  0  0  0  0
   17.6219    5.2235   14.9463 C   0  0  0  0  0  0  0  0  0  0  0  0
   18.9174    5.6864   14.6172 C   0  0  0  0  0  0  0  0  0  0  0  0
   19.0628    6.8642   13.8800 C   0  0  0  0  0  0  0  0  0  0  0  0
   18.9913    8.9038   12.5913 H   0  0  0  0  0  0  0  0  0  0  0  0
   15.7809    7.7008   13.4528 H   0  0  0  0  0  0  0  0  0  0  0  0
   15.4127    0.4332   16.5564 H   0  0  0  0  0  0  0  0  0  0  0  0
   16.4857    1.2754   15.4637 H   0  0  0  0  0  0  0  0  0  0  0  0
   19.7900    5.1288   14.9498 H   0  0  0  0  0  0  0  0  0  0  0  0
   20.0642    7.2136   13.6361 H   0  0  0  0  0  0  0  0  0  0  0  0
  1  2  1  0  0  0  0
  1 15  1  0  0  0  0
  2  3  2  0  0  0  0
  2 14  1  0  0  0  0
  3  4  1  0  0  0  0
  3 16  1  0  0  0  0
  4  5  1  0  0  0  0
  4 12  2  0  0  0  0
  5  6  1  0  0  0  0
  6  7  1  0  0  0  0
  6 11  2  0  0  0  0
  7  8  1  0  0  0  0
  7  9  2  0  0  0  0
  7 10  2  0  0  0  0
  8 17  1  0  0  0  0
  8 18  1  0  0  0  0
 11 12  1  0  0  0  0
 12 13  1  0  0  0  0
 13 14  2  0  0  0  0
 13 19  1  0  0  0  0
 14 20  1  0  0  0  0
M  END
$$$$
