ZEN
 OpenBabel04041917173D

 62 66  0  0  0  0  0  0  0  0999 V2000
   43.1809   73.1529  -26.5504 N   0  3  0  0  0  0  0  0  0  0  0  0
   43.6500   74.3916  -26.3706 C   0  0  0  0  0  0  0  0  0  0  0  0
   44.8766   74.7574  -26.9232 C   0  0  0  0  0  0  0  0  0  0  0  0
   45.0947   72.5736  -27.8150 C   0  0  0  0  0  0  0  0  0  0  0  0
   43.8588   72.2438  -27.2591 C   0  0  0  0  0  0  0  0  0  0  0  0
   45.6570   73.8501  -27.6586 C   0  0  0  0  0  0  0  0  0  0  0  0
   46.9264   74.1620  -28.1318 N   0  0  0  0  0  0  0  0  0  0  0  0
   47.5462   75.4804  -27.8838 C   0  0  0  0  0  0  0  0  0  0  0  0
   49.0313   75.3041  -27.5922 C   0  0  0  0  0  0  0  0  0  0  0  0
   49.0552   73.2665  -29.0287 C   0  0  0  0  0  0  0  0  0  0  0  0
   47.5502   73.4314  -29.2573 C   0  0  0  0  0  0  0  0  0  0  0  0
   49.7436   74.6074  -28.7553 C   0  0  0  0  0  0  0  0  0  0  0  0
   51.2118   74.3710  -28.4083 C   0  0  0  0  0  0  0  0  0  0  0  0
   51.5456   74.2396  -27.2258 O   0  0  0  0  0  0  0  0  0  0  0  0
   52.1276   74.2222  -29.4324 N   0  0  0  0  0  0  0  0  0  0  0  0
   51.9109   74.4505  -30.8673 C   0  0  0  0  0  0  0  0  0  0  0  0
   52.4677   73.2929  -31.7154 C   0  0  0  0  0  0  0  0  0  0  0  0
   54.0475   72.7345  -29.8763 C   0  0  0  0  0  0  0  0  0  0  0  0
   53.5326   73.9511  -29.0946 C   0  0  0  0  0  0  0  0  0  0  0  0
   53.8734   72.9685  -31.3385 N   0  0  0  0  0  0  0  0  0  0  0  0
   54.7171   71.9291  -32.3862 S   0  0  0  0  0  0  0  0  0  0  0  0
   56.0121   71.6470  -31.8041 O   0  0  0  0  0  0  0  0  0  0  0  0
   54.5939   72.4747  -33.7205 O   0  0  0  0  0  0  0  0  0  0  0  0
   53.7658   70.4206  -32.3445 C   0  0  0  0  0  0  0  0  0  0  0  0
   54.0303   69.4418  -31.3811 C   0  0  0  0  0  0  0  0  0  0  0  0
   52.8100   70.1992  -33.3394 C   0  0  0  0  0  0  0  0  0  0  0  0
   52.0864   69.0076  -33.3505 C   0  0  0  0  0  0  0  0  0  0  0  0
   53.3052   68.2361  -31.3854 C   0  0  0  0  0  0  0  0  0  0  0  0
   52.3197   68.0211  -32.3817 C   0  0  0  0  0  0  0  0  0  0  0  0
   51.5998   66.8165  -32.3976 C   0  0  0  0  0  0  0  0  0  0  0  0
   52.8135   66.0349  -30.4583 C   0  0  0  0  0  0  0  0  0  0  0  0
   53.5396   67.2298  -30.4317 C   0  0  0  0  0  0  0  0  0  0  0  0
   51.8476   65.8354  -31.4401 C   0  0  0  0  0  0  0  0  0  0  0  0
   50.9498   64.3678  -31.4738 Cl  0  0  0  0  0  0  0  0  0  0  0  0
   43.0421   75.0697  -25.7809 H   0  0  0  0  0  0  0  0  0  0  0  0
   45.1944   75.7804  -26.7487 H   0  0  0  0  0  0  0  0  0  0  0  0
   45.6161   71.7795  -28.3394 H   0  0  0  0  0  0  0  0  0  0  0  0
   43.4111   71.2606  -27.3559 H   0  0  0  0  0  0  0  0  0  0  0  0
   47.1328   75.9979  -27.0157 H   0  0  0  0  0  0  0  0  0  0  0  0
   47.3949   76.1273  -28.7570 H   0  0  0  0  0  0  0  0  0  0  0  0
   49.1428   74.7206  -26.6681 H   0  0  0  0  0  0  0  0  0  0  0  0
   49.4915   76.2815  -27.4040 H   0  0  0  0  0  0  0  0  0  0  0  0
   49.5080   72.7715  -29.8952 H   0  0  0  0  0  0  0  0  0  0  0  0
   49.2139   72.5930  -28.1745 H   0  0  0  0  0  0  0  0  0  0  0  0
   47.3706   73.9847  -30.1878 H   0  0  0  0  0  0  0  0  0  0  0  0
   47.1420   72.4306  -29.4101 H   0  0  0  0  0  0  0  0  0  0  0  0
   49.6647   75.2679  -29.6236 H   0  0  0  0  0  0  0  0  0  0  0  0
   52.4272   75.3845  -31.1217 H   0  0  0  0  0  0  0  0  0  0  0  0
   50.8552   74.5855  -31.1043 H   0  0  0  0  0  0  0  0  0  0  0  0
   52.4131   73.5777  -32.7711 H   0  0  0  0  0  0  0  0  0  0  0  0
   51.8397   72.4091  -31.5560 H   0  0  0  0  0  0  0  0  0  0  0  0
   53.4920   71.8391  -29.5784 H   0  0  0  0  0  0  0  0  0  0  0  0
   55.1056   72.5943  -29.6352 H   0  0  0  0  0  0  0  0  0  0  0  0
   53.6661   73.7810  -28.0224 H   0  0  0  0  0  0  0  0  0  0  0  0
   54.1085   74.8473  -29.3588 H   0  0  0  0  0  0  0  0  0  0  0  0
   54.8098   69.6090  -30.6395 H   0  0  0  0  0  0  0  0  0  0  0  0
   52.6339   70.9374  -34.1188 H   0  0  0  0  0  0  0  0  0  0  0  0
   51.3511   68.8463  -34.1370 H   0  0  0  0  0  0  0  0  0  0  0  0
   50.8490   66.6360  -33.1635 H   0  0  0  0  0  0  0  0  0  0  0  0
   53.0120   65.2647  -29.7182 H   0  0  0  0  0  0  0  0  0  0  0  0
   54.2986   67.3622  -29.6626 H   0  0  0  0  0  0  0  0  0  0  0  0
   42.2872   72.8931  -26.1306 H   0  0  0  0  0  0  0  0  0  0  0  0
  1  2  2  0  0  0  0
  1  5  1  0  0  0  0
  1 62  1  0  0  0  0
  2  3  1  0  0  0  0
  2 35  1  0  0  0  0
  3  6  2  0  0  0  0
  3 36  1  0  0  0  0
  4  5  2  0  0  0  0
  4  6  1  0  0  0  0
  4 37  1  0  0  0  0
  5 38  1  0  0  0  0
  6  7  1  0  0  0  0
  7  8  1  0  0  0  0
  7 11  1  0  0  0  0
  8  9  1  0  0  0  0
  8 39  1  0  0  0  0
  8 40  1  0  0  0  0
  9 12  1  0  0  0  0
  9 41  1  0  0  0  0
  9 42  1  0  0  0  0
 10 11  1  0  0  0  0
 10 12  1  0  0  0  0
 10 43  1  0  0  0  0
 10 44  1  0  0  0  0
 11 45  1  0  0  0  0
 11 46  1  0  0  0  0
 12 13  1  0  0  0  0
 12 47  1  0  0  0  0
 13 14  2  0  0  0  0
 13 15  1  0  0  0  0
 15 16  1  0  0  0  0
 15 19  1  0  0  0  0
 16 17  1  0  0  0  0
 16 48  1  0  0  0  0
 16 49  1  0  0  0  0
 17 20  1  0  0  0  0
 17 50  1  0  0  0  0
 17 51  1  0  0  0  0
 18 19  1  0  0  0  0
 18 20  1  0  0  0  0
 18 52  1  0  0  0  0
 18 53  1  0  0  0  0
 19 54  1  0  0  0  0
 19 55  1  0  0  0  0
 20 21  1  0  0  0  0
 21 22  2  0  0  0  0
 21 23  2  0  0  0  0
 21 24  1  0  0  0  0
 24 25  2  0  0  0  0
 24 26  1  0  0  0  0
 25 28  1  0  0  0  0
 25 56  1  0  0  0  0
 26 27  2  0  0  0  0
 26 57  1  0  0  0  0
 27 29  1  0  0  0  0
 27 58  1  0  0  0  0
 28 29  2  0  0  0  0
 28 32  1  0  0  0  0
 29 30  1  0  0  0  0
 30 33  2  0  0  0  0
 30 59  1  0  0  0  0
 31 32  2  0  0  0  0
 31 33  1  0  0  0  0
 31 60  1  0  0  0  0
 32 61  1  0  0  0  0
 33 34  1  0  0  0  0
M  CHG  1   1   1
M  END
$$$$
