ZEN
 OpenBabel04041915083D

 62 66  0  0  0  0  0  0  0  0999 V2000
   18.5411   50.7332   60.2580 N   0  3  0  0  0  0  0  0  0  0  0  0
   18.3212   50.7473   61.5756 C   0  0  0  0  0  0  0  0  0  0  0  0
   17.1247   50.2487   62.0778 C   0  0  0  0  0  0  0  0  0  0  0  0
   16.4320   49.7363   59.8719 C   0  0  0  0  0  0  0  0  0  0  0  0
   17.6328   50.2406   59.3956 C   0  0  0  0  0  0  0  0  0  0  0  0
   16.1225   49.7302   61.2402 C   0  0  0  0  0  0  0  0  0  0  0  0
   14.9153   49.2575   61.7298 N   0  0  0  0  0  0  0  0  0  0  0  0
   14.4921   49.5095   63.1200 C   0  0  0  0  0  0  0  0  0  0  0  0
   13.1858   50.2843   63.1214 C   0  0  0  0  0  0  0  0  0  0  0  0
   12.5453   49.2466   60.9607 C   0  0  0  0  0  0  0  0  0  0  0  0
   13.9130   48.5550   60.8992 C   0  0  0  0  0  0  0  0  0  0  0  0
   12.0923   49.4810   62.4049 C   0  0  0  0  0  0  0  0  0  0  0  0
   10.7844   50.2638   62.4572 C   0  0  0  0  0  0  0  0  0  0  0  0
   10.8364   51.5025   62.5112 O   0  0  0  0  0  0  0  0  0  0  0  0
    9.5730   49.6170   62.3942 N   0  0  0  0  0  0  0  0  0  0  0  0
    9.3572   48.1758   62.2519 C   0  0  0  0  0  0  0  0  0  0  0  0
    8.4858   47.8599   61.0275 C   0  0  0  0  0  0  0  0  0  0  0  0
    7.5203   50.1404   61.1196 C   0  0  0  0  0  0  0  0  0  0  0  0
    8.3333   50.4251   62.3864 C   0  0  0  0  0  0  0  0  0  0  0  0
    7.2464   48.6814   61.0222 N   0  0  0  0  0  0  0  0  0  0  0  0
    6.0787   48.2220   59.8800 S   0  0  0  0  0  0  0  0  0  0  0  0
    4.9725   49.1463   59.9823 O   0  0  0  0  0  0  0  0  0  0  0  0
    5.8946   46.7957   60.0306 O   0  0  0  0  0  0  0  0  0  0  0  0
    6.8852   48.4966   58.3041 C   0  0  0  0  0  0  0  0  0  0  0  0
    6.8390   49.7501   57.6755 C   0  0  0  0  0  0  0  0  0  0  0  0
    7.4894   47.4109   57.6597 C   0  0  0  0  0  0  0  0  0  0  0  0
    8.0543   47.5814   56.3954 C   0  0  0  0  0  0  0  0  0  0  0  0
    7.4056   49.9320   56.4019 C   0  0  0  0  0  0  0  0  0  0  0  0
    8.0178   48.8275   55.7563 C   0  0  0  0  0  0  0  0  0  0  0  0
    8.5867   48.9842   54.4860 C   0  0  0  0  0  0  0  0  0  0  0  0
    7.9571   51.3165   54.4607 C   0  0  0  0  0  0  0  0  0  0  0  0
    7.3833   51.1723   55.7293 C   0  0  0  0  0  0  0  0  0  0  0  0
    8.5610   50.2208   53.8474 C   0  0  0  0  0  0  0  0  0  0  0  0
    9.3028   50.3791   52.3034 Cl  0  0  0  0  0  0  0  0  0  0  0  0
   19.0974   51.1564   62.2087 H   0  0  0  0  0  0  0  0  0  0  0  0
   17.0178   50.2727   63.1546 H   0  0  0  0  0  0  0  0  0  0  0  0
   15.7392   49.3707   59.1259 H   0  0  0  0  0  0  0  0  0  0  0  0
   17.8819   50.2671   58.3401 H   0  0  0  0  0  0  0  0  0  0  0  0
   15.2045   50.1013   63.6934 H   0  0  0  0  0  0  0  0  0  0  0  0
   14.3783   48.5620   63.6598 H   0  0  0  0  0  0  0  0  0  0  0  0
   13.3411   51.2517   62.6200 H   0  0  0  0  0  0  0  0  0  0  0  0
   12.8857   50.5098   64.1505 H   0  0  0  0  0  0  0  0  0  0  0  0
   12.6092   50.2079   60.4305 H   0  0  0  0  0  0  0  0  0  0  0  0
   11.8072   48.6472   60.4163 H   0  0  0  0  0  0  0  0  0  0  0  0
   13.8197   47.5161   61.2375 H   0  0  0  0  0  0  0  0  0  0  0  0
   14.2007   48.4868   59.8488 H   0  0  0  0  0  0  0  0  0  0  0  0
   11.9756   48.5289   62.9323 H   0  0  0  0  0  0  0  0  0  0  0  0
    8.8726   47.8118   63.1688 H   0  0  0  0  0  0  0  0  0  0  0  0
   10.3032   47.6407   62.1486 H   0  0  0  0  0  0  0  0  0  0  0  0
    8.2362   46.7944   61.0316 H   0  0  0  0  0  0  0  0  0  0  0  0
    9.0538   48.0883   60.1213 H   0  0  0  0  0  0  0  0  0  0  0  0
    6.5854   50.7070   61.1495 H   0  0  0  0  0  0  0  0  0  0  0  0
    8.0947   50.4496   60.2394 H   0  0  0  0  0  0  0  0  0  0  0  0
    8.5504   51.4962   62.4348 H   0  0  0  0  0  0  0  0  0  0  0  0
    7.7506   50.1711   63.2822 H   0  0  0  0  0  0  0  0  0  0  0  0
    6.3504   50.5880   58.1744 H   0  0  0  0  0  0  0  0  0  0  0  0
    7.5168   46.4296   58.1259 H   0  0  0  0  0  0  0  0  0  0  0  0
    8.5166   46.7271   55.9017 H   0  0  0  0  0  0  0  0  0  0  0  0
    9.0550   48.1363   53.9896 H   0  0  0  0  0  0  0  0  0  0  0  0
    7.9296   52.2817   53.9574 H   0  0  0  0  0  0  0  0  0  0  0  0
    6.9150   52.0406   56.1947 H   0  0  0  0  0  0  0  0  0  0  0  0
   19.4181   51.1128   59.9007 H   0  0  0  0  0  0  0  0  0  0  0  0
  1  5  2  0  0  0  0
  1  2  1  0  0  0  0
  1 62  1  0  0  0  0
  2  3  2  0  0  0  0
  2 35  1  0  0  0  0
  3  6  1  0  0  0  0
  3 36  1  0  0  0  0
  4  6  2  0  0  0  0
  4  5  1  0  0  0  0
  4 37  1  0  0  0  0
  5 38  1  0  0  0  0
  6  7  1  0  0  0  0
  7 11  1  0  0  0  0
  7  8  1  0  0  0  0
  8  9  1  0  0  0  0
  8 39  1  0  0  0  0
  8 40  1  0  0  0  0
  9 12  1  0  0  0  0
  9 41  1  0  0  0  0
  9 42  1  0  0  0  0
 10 12  1  0  0  0  0
 10 11  1  0  0  0  0
 10 43  1  0  0  0  0
 10 44  1  0  0  0  0
 11 45  1  0  0  0  0
 11 46  1  0  0  0  0
 12 13  1  0  0  0  0
 12 47  1  0  0  0  0
 13 15  1  0  0  0  0
 13 14  2  0  0  0  0
 15 19  1  0  0  0  0
 15 16  1  0  0  0  0
 16 17  1  0  0  0  0
 16 48  1  0  0  0  0
 16 49  1  0  0  0  0
 17 20  1  0  0  0  0
 17 50  1  0  0  0  0
 17 51  1  0  0  0  0
 18 20  1  0  0  0  0
 18 19  1  0  0  0  0
 18 52  1  0  0  0  0
 18 53  1  0  0  0  0
 19 54  1  0  0  0  0
 19 55  1  0  0  0  0
 20 21  1  0  0  0  0
 21 24  1  0  0  0  0
 21 23  2  0  0  0  0
 21 22  2  0  0  0  0
 24 26  2  0  0  0  0
 24 25  1  0  0  0  0
 25 28  2  0  0  0  0
 25 56  1  0  0  0  0
 26 27  1  0  0  0  0
 26 57  1  0  0  0  0
 27 29  2  0  0  0  0
 27 58  1  0  0  0  0
 28 32  1  0  0  0  0
 28 29  1  0  0  0  0
 29 30  1  0  0  0  0
 30 33  2  0  0  0  0
 30 59  1  0  0  0  0
 31 33  1  0  0  0  0
 31 32  2  0  0  0  0
 31 60  1  0  0  0  0
 32 61  1  0  0  0  0
 33 34  1  0  0  0  0
M  CHG  1   1   1
M  END
$$$$
